WARNING: physical memory size is smaller than virtual memory size.

*** ChampSim Multicore Out-of-Order Simulator ***
Warmup Instructions: 50000000
Simulation Instructions: 600000000
Number of CPUs: 1
Page size: 4096

CPU 0 Tage branch predictor
Off-chip DRAM Size: 4 GiB Channels: 1 Width: 64-bit Data Race: 3200 MT/s
Heartbeat CPU 0 instructions: 10000001 cycles: 2500318 heartbeat IPC: 3.999 cumulative IPC: 3.999 (Simulation time: 00 hr 01 min 10 sec)
Heartbeat CPU 0 instructions: 20000002 cycles: 5037133 heartbeat IPC: 3.942 cumulative IPC: 3.971 (Simulation time: 00 hr 02 min 30 sec)
Heartbeat CPU 0 instructions: 30000002 cycles: 7537133 heartbeat IPC: 4 cumulative IPC: 3.98 (Simulation time: 00 hr 03 min 52 sec)
Heartbeat CPU 0 instructions: 40000002 cycles: 10037133 heartbeat IPC: 4 cumulative IPC: 3.985 (Simulation time: 00 hr 05 min 21 sec)
Heartbeat CPU 0 instructions: 50000002 cycles: 12537133 heartbeat IPC: 4 cumulative IPC: 3.988 (Simulation time: 00 hr 06 min 44 sec)
Warmup finished CPU 0 instructions: 50000002 cycles: 12537134 cumulative IPC: 3.988 (Simulation time: 00 hr 06 min 44 sec)
Warmup complete CPU 0 instructions: 50000002 cycles: 12537134 cumulative IPC: 3.988 (Simulation time: 00 hr 06 min 44 sec)
Heartbeat CPU 0 instructions: 60000001 cycles: 15497933 heartbeat IPC: 3.377 cumulative IPC: 3.377 (Simulation time: 00 hr 08 min 20 sec)
Heartbeat CPU 0 instructions: 70000004 cycles: 18555730 heartbeat IPC: 3.27 cumulative IPC: 3.323 (Simulation time: 00 hr 09 min 59 sec)
Heartbeat CPU 0 instructions: 80000001 cycles: 21588864 heartbeat IPC: 3.297 cumulative IPC: 3.314 (Simulation time: 00 hr 11 min 32 sec)
Heartbeat CPU 0 instructions: 90000001 cycles: 24522196 heartbeat IPC: 3.409 cumulative IPC: 3.337 (Simulation time: 00 hr 13 min 12 sec)
Heartbeat CPU 0 instructions: 100000000 cycles: 27421486 heartbeat IPC: 3.449 cumulative IPC: 3.359 (Simulation time: 00 hr 14 min 49 sec)
Heartbeat CPU 0 instructions: 110000000 cycles: 30352979 heartbeat IPC: 3.411 cumulative IPC: 3.368 (Simulation time: 00 hr 16 min 19 sec)
Heartbeat CPU 0 instructions: 120000001 cycles: 33315615 heartbeat IPC: 3.375 cumulative IPC: 3.369 (Simulation time: 00 hr 18 min 03 sec)
Heartbeat CPU 0 instructions: 130000001 cycles: 36158624 heartbeat IPC: 3.517 cumulative IPC: 3.387 (Simulation time: 00 hr 19 min 40 sec)
Heartbeat CPU 0 instructions: 140000001 cycles: 39182759 heartbeat IPC: 3.307 cumulative IPC: 3.378 (Simulation time: 00 hr 21 min 28 sec)
Heartbeat CPU 0 instructions: 150000001 cycles: 42173737 heartbeat IPC: 3.343 cumulative IPC: 3.374 (Simulation time: 00 hr 23 min 17 sec)
Heartbeat CPU 0 instructions: 160000004 cycles: 45163243 heartbeat IPC: 3.345 cumulative IPC: 3.372 (Simulation time: 00 hr 25 min 07 sec)
Heartbeat CPU 0 instructions: 170000000 cycles: 50579037 heartbeat IPC: 1.846 cumulative IPC: 3.154 (Simulation time: 00 hr 27 min 34 sec)
Heartbeat CPU 0 instructions: 180000004 cycles: 55166811 heartbeat IPC: 2.18 cumulative IPC: 3.05 (Simulation time: 00 hr 28 min 41 sec)
Heartbeat CPU 0 instructions: 190000001 cycles: 59339473 heartbeat IPC: 2.397 cumulative IPC: 2.991 (Simulation time: 00 hr 29 min 39 sec)
Heartbeat CPU 0 instructions: 200000004 cycles: 62083924 heartbeat IPC: 3.644 cumulative IPC: 3.027 (Simulation time: 00 hr 30 min 25 sec)
Heartbeat CPU 0 instructions: 210000001 cycles: 64870432 heartbeat IPC: 3.589 cumulative IPC: 3.057 (Simulation time: 00 hr 31 min 12 sec)
Heartbeat CPU 0 instructions: 220000000 cycles: 67659310 heartbeat IPC: 3.586 cumulative IPC: 3.084 (Simulation time: 00 hr 31 min 58 sec)
Heartbeat CPU 0 instructions: 230000002 cycles: 70343204 heartbeat IPC: 3.726 cumulative IPC: 3.114 (Simulation time: 00 hr 32 min 44 sec)
Heartbeat CPU 0 instructions: 240000003 cycles: 73160334 heartbeat IPC: 3.55 cumulative IPC: 3.134 (Simulation time: 00 hr 33 min 31 sec)
Heartbeat CPU 0 instructions: 250000000 cycles: 75930376 heartbeat IPC: 3.61 cumulative IPC: 3.155 (Simulation time: 00 hr 34 min 17 sec)
Heartbeat CPU 0 instructions: 260000002 cycles: 78642120 heartbeat IPC: 3.688 cumulative IPC: 3.177 (Simulation time: 00 hr 35 min 05 sec)
Heartbeat CPU 0 instructions: 270000002 cycles: 81378371 heartbeat IPC: 3.655 cumulative IPC: 3.196 (Simulation time: 00 hr 35 min 54 sec)
Heartbeat CPU 0 instructions: 280000002 cycles: 84067619 heartbeat IPC: 3.719 cumulative IPC: 3.215 (Simulation time: 00 hr 36 min 40 sec)
Heartbeat CPU 0 instructions: 290000002 cycles: 86871709 heartbeat IPC: 3.566 cumulative IPC: 3.229 (Simulation time: 00 hr 37 min 27 sec)
Heartbeat CPU 0 instructions: 300000003 cycles: 89526126 heartbeat IPC: 3.767 cumulative IPC: 3.247 (Simulation time: 00 hr 38 min 14 sec)
Heartbeat CPU 0 instructions: 310000001 cycles: 92292535 heartbeat IPC: 3.615 cumulative IPC: 3.26 (Simulation time: 00 hr 39 min 00 sec)
Heartbeat CPU 0 instructions: 320000003 cycles: 95093958 heartbeat IPC: 3.57 cumulative IPC: 3.27 (Simulation time: 00 hr 39 min 47 sec)
Heartbeat CPU 0 instructions: 330000003 cycles: 97794157 heartbeat IPC: 3.703 cumulative IPC: 3.284 (Simulation time: 00 hr 40 min 34 sec)
Heartbeat CPU 0 instructions: 340000000 cycles: 102125357 heartbeat IPC: 2.309 cumulative IPC: 3.237 (Simulation time: 00 hr 41 min 32 sec)
Heartbeat CPU 0 instructions: 350000000 cycles: 106788996 heartbeat IPC: 2.144 cumulative IPC: 3.183 (Simulation time: 00 hr 42 min 34 sec)
Heartbeat CPU 0 instructions: 360000004 cycles: 111234488 heartbeat IPC: 2.249 cumulative IPC: 3.141 (Simulation time: 00 hr 43 min 33 sec)
Heartbeat CPU 0 instructions: 370000000 cycles: 114033545 heartbeat IPC: 3.573 cumulative IPC: 3.153 (Simulation time: 00 hr 44 min 18 sec)
Heartbeat CPU 0 instructions: 380000003 cycles: 116788083 heartbeat IPC: 3.63 cumulative IPC: 3.165 (Simulation time: 00 hr 45 min 02 sec)
Heartbeat CPU 0 instructions: 390000002 cycles: 119647719 heartbeat IPC: 3.497 cumulative IPC: 3.174 (Simulation time: 00 hr 45 min 46 sec)
Heartbeat CPU 0 instructions: 400000004 cycles: 122472012 heartbeat IPC: 3.541 cumulative IPC: 3.184 (Simulation time: 00 hr 46 min 33 sec)
Heartbeat CPU 0 instructions: 410000002 cycles: 125227531 heartbeat IPC: 3.629 cumulative IPC: 3.195 (Simulation time: 00 hr 47 min 19 sec)
Heartbeat CPU 0 instructions: 420000003 cycles: 128056281 heartbeat IPC: 3.535 cumulative IPC: 3.203 (Simulation time: 00 hr 48 min 07 sec)
Heartbeat CPU 0 instructions: 430000001 cycles: 130918648 heartbeat IPC: 3.494 cumulative IPC: 3.21 (Simulation time: 00 hr 48 min 53 sec)
Heartbeat CPU 0 instructions: 440000004 cycles: 133830257 heartbeat IPC: 3.435 cumulative IPC: 3.215 (Simulation time: 00 hr 49 min 40 sec)
Heartbeat CPU 0 instructions: 450000002 cycles: 136557990 heartbeat IPC: 3.666 cumulative IPC: 3.225 (Simulation time: 00 hr 50 min 27 sec)
Heartbeat CPU 0 instructions: 460000000 cycles: 139318823 heartbeat IPC: 3.622 cumulative IPC: 3.234 (Simulation time: 00 hr 51 min 13 sec)
Heartbeat CPU 0 instructions: 470000001 cycles: 142024670 heartbeat IPC: 3.696 cumulative IPC: 3.244 (Simulation time: 00 hr 51 min 59 sec)
Heartbeat CPU 0 instructions: 480000003 cycles: 144891782 heartbeat IPC: 3.488 cumulative IPC: 3.249 (Simulation time: 00 hr 52 min 45 sec)
Heartbeat CPU 0 instructions: 490000004 cycles: 147600000 heartbeat IPC: 3.692 cumulative IPC: 3.258 (Simulation time: 00 hr 53 min 29 sec)
Heartbeat CPU 0 instructions: 500000004 cycles: 150471212 heartbeat IPC: 3.483 cumulative IPC: 3.262 (Simulation time: 00 hr 54 min 15 sec)
Heartbeat CPU 0 instructions: 510000003 cycles: 153302375 heartbeat IPC: 3.532 cumulative IPC: 3.268 (Simulation time: 00 hr 55 min 03 sec)
Heartbeat CPU 0 instructions: 520000001 cycles: 155984082 heartbeat IPC: 3.729 cumulative IPC: 3.276 (Simulation time: 00 hr 55 min 50 sec)
Heartbeat CPU 0 instructions: 530000001 cycles: 158823759 heartbeat IPC: 3.522 cumulative IPC: 3.281 (Simulation time: 00 hr 56 min 36 sec)
Heartbeat CPU 0 instructions: 540000000 cycles: 161615768 heartbeat IPC: 3.582 cumulative IPC: 3.287 (Simulation time: 00 hr 57 min 22 sec)
Heartbeat CPU 0 instructions: 550000001 cycles: 164459528 heartbeat IPC: 3.516 cumulative IPC: 3.291 (Simulation time: 00 hr 58 min 08 sec)
Heartbeat CPU 0 instructions: 560000000 cycles: 167299683 heartbeat IPC: 3.521 cumulative IPC: 3.295 (Simulation time: 00 hr 58 min 54 sec)
Heartbeat CPU 0 instructions: 570000004 cycles: 170887131 heartbeat IPC: 2.787 cumulative IPC: 3.284 (Simulation time: 00 hr 59 min 44 sec)
Heartbeat CPU 0 instructions: 580000003 cycles: 175403802 heartbeat IPC: 2.214 cumulative IPC: 3.254 (Simulation time: 01 hr 00 min 40 sec)
Heartbeat CPU 0 instructions: 590000002 cycles: 180209347 heartbeat IPC: 2.081 cumulative IPC: 3.221 (Simulation time: 01 hr 01 min 39 sec)
Heartbeat CPU 0 instructions: 600000004 cycles: 183069878 heartbeat IPC: 3.496 cumulative IPC: 3.225 (Simulation time: 01 hr 02 min 24 sec)
Heartbeat CPU 0 instructions: 610000002 cycles: 185887034 heartbeat IPC: 3.55 cumulative IPC: 3.23 (Simulation time: 01 hr 03 min 10 sec)
Heartbeat CPU 0 instructions: 620000001 cycles: 188579045 heartbeat IPC: 3.715 cumulative IPC: 3.238 (Simulation time: 01 hr 03 min 54 sec)
Heartbeat CPU 0 instructions: 630000002 cycles: 191417140 heartbeat IPC: 3.523 cumulative IPC: 3.242 (Simulation time: 01 hr 04 min 41 sec)
Heartbeat CPU 0 instructions: 640000004 cycles: 194309342 heartbeat IPC: 3.458 cumulative IPC: 3.246 (Simulation time: 01 hr 05 min 31 sec)
Heartbeat CPU 0 instructions: 650000000 cycles: 197006757 heartbeat IPC: 3.707 cumulative IPC: 3.253 (Simulation time: 01 hr 06 min 19 sec)
Simulation finished CPU 0 instructions: 600000001 cycles: 184469625 cumulative IPC: 3.253 (Simulation time: 01 hr 06 min 19 sec)
Simulation complete CPU 0 instructions: 600000001 cycles: 184469625 cumulative IPC: 3.253 (Simulation time: 01 hr 06 min 19 sec)

ChampSim completed all CPUs

=== Simulation ===
CPU 0 runs traces/400.perlbench-41B.champsimtrace.xz
Region of Interest Statistics

CPU 0 cumulative IPC: 3.253 instructions: 600000001 cycles: 184469625
CPU 0 Branch Prediction Accuracy: 99.19% MPKI: 1.684 Average ROB Occupancy at Mispredict: 100.3
Branch type MPKI
BRANCH_DIRECT_JUMP: 0.0123
BRANCH_INDIRECT: 0.323
BRANCH_CONDITIONAL: 1.14
BRANCH_DIRECT_CALL: 0.0043
BRANCH_INDIRECT_CALL: 0.2
BRANCH_RETURN: 0.00828

LLC TOTAL        ACCESS:     541138 HIT:     497028 MISS:      44110
LLC LOAD         ACCESS:     403789 HIT:     370611 MISS:      33178
LLC RFO          ACCESS:      32558 HIT:      28319 MISS:       4239
LLC PREFETCH     ACCESS:          0 HIT:          0 MISS:          0
LLC WRITE        ACCESS:      85637 HIT:      85505 MISS:        132
LLC TRANSLATION  ACCESS:      19154 HIT:      12593 MISS:       6561
LLC PREFETCH REQUESTED:          0 ISSUED:          0 USEFUL:          0 USELESS:          0
LLC AVERAGE MISS LATENCY: 550.9 cycles
cpu0_DTLB TOTAL        ACCESS:  129751694 HIT:  129050923 MISS:     700771
cpu0_DTLB LOAD         ACCESS:  129751694 HIT:  129050923 MISS:     700771
cpu0_DTLB RFO          ACCESS:          0 HIT:          0 MISS:          0
cpu0_DTLB PREFETCH     ACCESS:          0 HIT:          0 MISS:          0
cpu0_DTLB WRITE        ACCESS:          0 HIT:          0 MISS:          0
cpu0_DTLB TRANSLATION  ACCESS:          0 HIT:          0 MISS:          0
cpu0_DTLB PREFETCH REQUESTED:          0 ISSUED:          0 USEFUL:          0 USELESS:          0
cpu0_DTLB AVERAGE MISS LATENCY: 10.06 cycles
cpu0_ITLB TOTAL        ACCESS:    4859632 HIT:    4797527 MISS:      62105
cpu0_ITLB LOAD         ACCESS:    4859632 HIT:    4797527 MISS:      62105
cpu0_ITLB RFO          ACCESS:          0 HIT:          0 MISS:          0
cpu0_ITLB PREFETCH     ACCESS:          0 HIT:          0 MISS:          0
cpu0_ITLB WRITE        ACCESS:          0 HIT:          0 MISS:          0
cpu0_ITLB TRANSLATION  ACCESS:          0 HIT:          0 MISS:          0
cpu0_ITLB PREFETCH REQUESTED:          0 ISSUED:          0 USEFUL:          0 USELESS:          0
cpu0_ITLB AVERAGE MISS LATENCY: 3.821 cycles
cpu0_L1D TOTAL        ACCESS:  174383634 HIT:  172656115 MISS:    1727519
cpu0_L1D LOAD         ACCESS:   91361116 HIT:   90014469 MISS:    1346647
cpu0_L1D RFO          ACCESS:          0 HIT:          0 MISS:          0
cpu0_L1D PREFETCH     ACCESS:          0 HIT:          0 MISS:          0
cpu0_L1D WRITE        ACCESS:   82998053 HIT:   82640582 MISS:     357471
cpu0_L1D TRANSLATION  ACCESS:      24465 HIT:       1064 MISS:      23401
cpu0_L1D PREFETCH REQUESTED:          0 ISSUED:          0 USEFUL:          0 USELESS:          0
cpu0_L1D AVERAGE MISS LATENCY: 21.39 cycles
cpu0_L1I TOTAL        ACCESS:    5639675 HIT:    4835650 MISS:     804025
cpu0_L1I LOAD         ACCESS:    5639675 HIT:    4835650 MISS:     804025
cpu0_L1I RFO          ACCESS:          0 HIT:          0 MISS:          0
cpu0_L1I PREFETCH     ACCESS:          0 HIT:          0 MISS:          0
cpu0_L1I WRITE        ACCESS:          0 HIT:          0 MISS:          0
cpu0_L1I TRANSLATION  ACCESS:          0 HIT:          0 MISS:          0
cpu0_L1I PREFETCH REQUESTED:          0 ISSUED:          0 USEFUL:          0 USELESS:          0
cpu0_L1I AVERAGE MISS LATENCY: 8.04 cycles
cpu0_L2C TOTAL        ACCESS:    1668517 HIT:    1211190 MISS:     457327
cpu0_L2C LOAD         ACCESS:    1315370 HIT:     911581 MISS:     403789
cpu0_L2C RFO          ACCESS:      89538 HIT:      56979 MISS:      32559
cpu0_L2C PREFETCH     ACCESS:          0 HIT:          0 MISS:          0
cpu0_L2C WRITE        ACCESS:     240288 HIT:     238463 MISS:       1825
cpu0_L2C TRANSLATION  ACCESS:      23321 HIT:       4167 MISS:      19154
cpu0_L2C PREFETCH REQUESTED:          0 ISSUED:          0 USEFUL:          0 USELESS:          0
cpu0_L2C AVERAGE MISS LATENCY: 73.16 cycles
cpu0_STLB TOTAL        ACCESS:     507753 HIT:     484965 MISS:      22788
cpu0_STLB LOAD         ACCESS:     507753 HIT:     484965 MISS:      22788
cpu0_STLB RFO          ACCESS:          0 HIT:          0 MISS:          0
cpu0_STLB PREFETCH     ACCESS:          0 HIT:          0 MISS:          0
cpu0_STLB WRITE        ACCESS:          0 HIT:          0 MISS:          0
cpu0_STLB TRANSLATION  ACCESS:          0 HIT:          0 MISS:          0
cpu0_STLB PREFETCH REQUESTED:          0 ISSUED:          0 USEFUL:          0 USELESS:          0
cpu0_STLB AVERAGE MISS LATENCY: 182.6 cycles

DRAM Statistics

Channel 0 RQ ROW_BUFFER_HIT:      12208
  ROW_BUFFER_MISS:      31770
 AVG DBUS CONGESTED CYCLE: 3.764
WQ ROW_BUFFER_HIT: Channel 0 
  ROW_BUFFER_MISS:        435
  FULL:       1196
