WARNING: physical memory size is smaller than virtual memory size.

*** ChampSim Multicore Out-of-Order Simulator ***
Warmup Instructions: 50000000
Simulation Instructions: 600000000
Number of CPUs: 1
Page size: 4096

Off-chip DRAM Size: 4 GiB Channels: 1 Width: 64-bit Data Race: 3200 MT/s
Heartbeat CPU 0 instructions: 10000001 cycles: 2500318 heartbeat IPC: 3.999 cumulative IPC: 3.999 (Simulation time: 00 hr 00 min 36 sec)
Heartbeat CPU 0 instructions: 20000002 cycles: 5037136 heartbeat IPC: 3.942 cumulative IPC: 3.971 (Simulation time: 00 hr 01 min 15 sec)
Heartbeat CPU 0 instructions: 30000002 cycles: 7537136 heartbeat IPC: 4 cumulative IPC: 3.98 (Simulation time: 00 hr 01 min 50 sec)
Heartbeat CPU 0 instructions: 40000002 cycles: 10037136 heartbeat IPC: 4 cumulative IPC: 3.985 (Simulation time: 00 hr 02 min 23 sec)
Heartbeat CPU 0 instructions: 50000002 cycles: 12537136 heartbeat IPC: 4 cumulative IPC: 3.988 (Simulation time: 00 hr 02 min 56 sec)
Warmup finished CPU 0 instructions: 50000002 cycles: 12537137 cumulative IPC: 3.988 (Simulation time: 00 hr 02 min 56 sec)
Warmup complete CPU 0 instructions: 50000002 cycles: 12537137 cumulative IPC: 3.988 (Simulation time: 00 hr 02 min 56 sec)
Heartbeat CPU 0 instructions: 60000000 cycles: 17125902 heartbeat IPC: 2.179 cumulative IPC: 2.179 (Simulation time: 00 hr 03 min 48 sec)
Heartbeat CPU 0 instructions: 70000004 cycles: 21380886 heartbeat IPC: 2.35 cumulative IPC: 2.261 (Simulation time: 00 hr 04 min 36 sec)
Heartbeat CPU 0 instructions: 80000001 cycles: 25959305 heartbeat IPC: 2.184 cumulative IPC: 2.235 (Simulation time: 00 hr 05 min 23 sec)
Heartbeat CPU 0 instructions: 90000001 cycles: 30073697 heartbeat IPC: 2.43 cumulative IPC: 2.281 (Simulation time: 00 hr 06 min 09 sec)
Heartbeat CPU 0 instructions: 100000000 cycles: 34111335 heartbeat IPC: 2.477 cumulative IPC: 2.318 (Simulation time: 00 hr 06 min 54 sec)
Heartbeat CPU 0 instructions: 110000000 cycles: 38328090 heartbeat IPC: 2.371 cumulative IPC: 2.326 (Simulation time: 00 hr 07 min 38 sec)
Heartbeat CPU 0 instructions: 120000001 cycles: 42323927 heartbeat IPC: 2.503 cumulative IPC: 2.35 (Simulation time: 00 hr 08 min 21 sec)
Heartbeat CPU 0 instructions: 130000001 cycles: 46040216 heartbeat IPC: 2.691 cumulative IPC: 2.388 (Simulation time: 00 hr 09 min 05 sec)
Heartbeat CPU 0 instructions: 140000001 cycles: 50177926 heartbeat IPC: 2.417 cumulative IPC: 2.391 (Simulation time: 00 hr 09 min 50 sec)
Heartbeat CPU 0 instructions: 150000001 cycles: 54352438 heartbeat IPC: 2.395 cumulative IPC: 2.391 (Simulation time: 00 hr 10 min 37 sec)
Heartbeat CPU 0 instructions: 160000004 cycles: 58738925 heartbeat IPC: 2.28 cumulative IPC: 2.381 (Simulation time: 00 hr 11 min 24 sec)
Heartbeat CPU 0 instructions: 170000000 cycles: 66012169 heartbeat IPC: 1.375 cumulative IPC: 2.244 (Simulation time: 00 hr 12 min 30 sec)
Heartbeat CPU 0 instructions: 180000004 cycles: 72596150 heartbeat IPC: 1.519 cumulative IPC: 2.165 (Simulation time: 00 hr 13 min 34 sec)
Heartbeat CPU 0 instructions: 190000001 cycles: 78509696 heartbeat IPC: 1.691 cumulative IPC: 2.122 (Simulation time: 00 hr 14 min 33 sec)
Heartbeat CPU 0 instructions: 200000004 cycles: 82013442 heartbeat IPC: 2.854 cumulative IPC: 2.159 (Simulation time: 00 hr 15 min 17 sec)
Heartbeat CPU 0 instructions: 210000001 cycles: 85727777 heartbeat IPC: 2.692 cumulative IPC: 2.186 (Simulation time: 00 hr 16 min 01 sec)
Heartbeat CPU 0 instructions: 220000000 cycles: 89560606 heartbeat IPC: 2.609 cumulative IPC: 2.207 (Simulation time: 00 hr 16 min 46 sec)
Heartbeat CPU 0 instructions: 230000002 cycles: 93807772 heartbeat IPC: 2.355 cumulative IPC: 2.215 (Simulation time: 00 hr 17 min 31 sec)
Heartbeat CPU 0 instructions: 240000000 cycles: 97743882 heartbeat IPC: 2.541 cumulative IPC: 2.23 (Simulation time: 00 hr 18 min 16 sec)
Heartbeat CPU 0 instructions: 250000000 cycles: 101741212 heartbeat IPC: 2.502 cumulative IPC: 2.242 (Simulation time: 00 hr 19 min 01 sec)
Heartbeat CPU 0 instructions: 260000000 cycles: 105606614 heartbeat IPC: 2.587 cumulative IPC: 2.256 (Simulation time: 00 hr 19 min 45 sec)
Heartbeat CPU 0 instructions: 270000002 cycles: 109239464 heartbeat IPC: 2.753 cumulative IPC: 2.275 (Simulation time: 00 hr 20 min 28 sec)
Heartbeat CPU 0 instructions: 280000002 cycles: 113171628 heartbeat IPC: 2.543 cumulative IPC: 2.285 (Simulation time: 00 hr 21 min 13 sec)
Heartbeat CPU 0 instructions: 290000001 cycles: 116870293 heartbeat IPC: 2.704 cumulative IPC: 2.3 (Simulation time: 00 hr 21 min 57 sec)
Heartbeat CPU 0 instructions: 300000003 cycles: 120394831 heartbeat IPC: 2.837 cumulative IPC: 2.318 (Simulation time: 00 hr 22 min 41 sec)
Heartbeat CPU 0 instructions: 310000001 cycles: 124183410 heartbeat IPC: 2.64 cumulative IPC: 2.329 (Simulation time: 00 hr 23 min 25 sec)
Heartbeat CPU 0 instructions: 320000003 cycles: 128002244 heartbeat IPC: 2.619 cumulative IPC: 2.338 (Simulation time: 00 hr 24 min 09 sec)
Heartbeat CPU 0 instructions: 330000003 cycles: 132031925 heartbeat IPC: 2.482 cumulative IPC: 2.343 (Simulation time: 00 hr 24 min 53 sec)
Heartbeat CPU 0 instructions: 340000000 cycles: 137951376 heartbeat IPC: 1.689 cumulative IPC: 2.312 (Simulation time: 00 hr 25 min 49 sec)
Heartbeat CPU 0 instructions: 350000000 cycles: 144571422 heartbeat IPC: 1.511 cumulative IPC: 2.272 (Simulation time: 00 hr 26 min 49 sec)
Heartbeat CPU 0 instructions: 360000004 cycles: 150651391 heartbeat IPC: 1.645 cumulative IPC: 2.245 (Simulation time: 00 hr 27 min 47 sec)
Heartbeat CPU 0 instructions: 370000000 cycles: 153890421 heartbeat IPC: 3.087 cumulative IPC: 2.264 (Simulation time: 00 hr 28 min 28 sec)
Heartbeat CPU 0 instructions: 380000001 cycles: 157110888 heartbeat IPC: 3.105 cumulative IPC: 2.283 (Simulation time: 00 hr 29 min 10 sec)
Heartbeat CPU 0 instructions: 390000004 cycles: 160714556 heartbeat IPC: 2.775 cumulative IPC: 2.295 (Simulation time: 00 hr 29 min 53 sec)
Heartbeat CPU 0 instructions: 400000004 cycles: 164439998 heartbeat IPC: 2.684 cumulative IPC: 2.304 (Simulation time: 00 hr 30 min 38 sec)
Heartbeat CPU 0 instructions: 410000001 cycles: 167869618 heartbeat IPC: 2.916 cumulative IPC: 2.318 (Simulation time: 00 hr 31 min 20 sec)
Heartbeat CPU 0 instructions: 420000003 cycles: 171576344 heartbeat IPC: 2.698 cumulative IPC: 2.326 (Simulation time: 00 hr 32 min 04 sec)
Heartbeat CPU 0 instructions: 430000001 cycles: 175066397 heartbeat IPC: 2.865 cumulative IPC: 2.338 (Simulation time: 00 hr 32 min 47 sec)
Heartbeat CPU 0 instructions: 440000004 cycles: 178875464 heartbeat IPC: 2.625 cumulative IPC: 2.345 (Simulation time: 00 hr 33 min 32 sec)
Heartbeat CPU 0 instructions: 450000002 cycles: 182366595 heartbeat IPC: 2.864 cumulative IPC: 2.355 (Simulation time: 00 hr 34 min 15 sec)
Heartbeat CPU 0 instructions: 460000000 cycles: 185832204 heartbeat IPC: 2.885 cumulative IPC: 2.366 (Simulation time: 00 hr 34 min 58 sec)
Heartbeat CPU 0 instructions: 470000000 cycles: 189116799 heartbeat IPC: 3.045 cumulative IPC: 2.379 (Simulation time: 00 hr 35 min 40 sec)
Heartbeat CPU 0 instructions: 480000003 cycles: 192724460 heartbeat IPC: 2.772 cumulative IPC: 2.386 (Simulation time: 00 hr 36 min 23 sec)
Heartbeat CPU 0 instructions: 490000000 cycles: 196215738 heartbeat IPC: 2.864 cumulative IPC: 2.395 (Simulation time: 00 hr 37 min 06 sec)
Heartbeat CPU 0 instructions: 500000000 cycles: 199776592 heartbeat IPC: 2.808 cumulative IPC: 2.403 (Simulation time: 00 hr 37 min 48 sec)
Heartbeat CPU 0 instructions: 510000003 cycles: 203200087 heartbeat IPC: 2.921 cumulative IPC: 2.413 (Simulation time: 00 hr 38 min 29 sec)
Heartbeat CPU 0 instructions: 520000001 cycles: 206367152 heartbeat IPC: 3.157 cumulative IPC: 2.425 (Simulation time: 00 hr 39 min 10 sec)
Heartbeat CPU 0 instructions: 530000002 cycles: 209842377 heartbeat IPC: 2.878 cumulative IPC: 2.433 (Simulation time: 00 hr 39 min 51 sec)
Heartbeat CPU 0 instructions: 540000000 cycles: 213168798 heartbeat IPC: 3.006 cumulative IPC: 2.442 (Simulation time: 00 hr 40 min 32 sec)
Heartbeat CPU 0 instructions: 550000001 cycles: 216697264 heartbeat IPC: 2.834 cumulative IPC: 2.449 (Simulation time: 00 hr 41 min 14 sec)
Heartbeat CPU 0 instructions: 560000000 cycles: 220362498 heartbeat IPC: 2.728 cumulative IPC: 2.454 (Simulation time: 00 hr 41 min 56 sec)
Heartbeat CPU 0 instructions: 570000004 cycles: 224875280 heartbeat IPC: 2.216 cumulative IPC: 2.449 (Simulation time: 00 hr 42 min 43 sec)
Heartbeat CPU 0 instructions: 580000003 cycles: 231370446 heartbeat IPC: 1.54 cumulative IPC: 2.422 (Simulation time: 00 hr 43 min 43 sec)
Heartbeat CPU 0 instructions: 590000002 cycles: 238424515 heartbeat IPC: 1.418 cumulative IPC: 2.391 (Simulation time: 00 hr 44 min 46 sec)
Heartbeat CPU 0 instructions: 600000000 cycles: 241927286 heartbeat IPC: 2.855 cumulative IPC: 2.398 (Simulation time: 00 hr 45 min 28 sec)
Heartbeat CPU 0 instructions: 610000000 cycles: 245600482 heartbeat IPC: 2.722 cumulative IPC: 2.403 (Simulation time: 00 hr 46 min 14 sec)
Heartbeat CPU 0 instructions: 620000001 cycles: 248934355 heartbeat IPC: 3 cumulative IPC: 2.411 (Simulation time: 00 hr 46 min 56 sec)
Heartbeat CPU 0 instructions: 630000002 cycles: 253049692 heartbeat IPC: 2.43 cumulative IPC: 2.412 (Simulation time: 00 hr 47 min 41 sec)
Heartbeat CPU 0 instructions: 640000001 cycles: 256879955 heartbeat IPC: 2.611 cumulative IPC: 2.415 (Simulation time: 00 hr 48 min 25 sec)
Heartbeat CPU 0 instructions: 650000000 cycles: 260571707 heartbeat IPC: 2.709 cumulative IPC: 2.419 (Simulation time: 00 hr 49 min 10 sec)
Simulation finished CPU 0 instructions: 600000001 cycles: 248034572 cumulative IPC: 2.419 (Simulation time: 00 hr 49 min 10 sec)
Simulation complete CPU 0 instructions: 600000001 cycles: 248034572 cumulative IPC: 2.419 (Simulation time: 00 hr 49 min 10 sec)

ChampSim completed all CPUs

=== Simulation ===
CPU 0 runs traces/400.perlbench-41B.champsimtrace.xz
Region of Interest Statistics

CPU 0 cumulative IPC: 2.419 instructions: 600000001 cycles: 248034572
CPU 0 Branch Prediction Accuracy: 96.56% MPKI: 7.112 Average ROB Occupancy at Mispredict: 46.65
Branch type MPKI
BRANCH_DIRECT_JUMP: 0.0123
BRANCH_INDIRECT: 0.323
BRANCH_CONDITIONAL: 6.56
BRANCH_DIRECT_CALL: 0.0043
BRANCH_INDIRECT_CALL: 0.2
BRANCH_RETURN: 0.00828

LLC TOTAL        ACCESS:     540485 HIT:     491873 MISS:      48612
LLC LOAD         ACCESS:     403227 HIT:     365152 MISS:      38075
LLC RFO          ACCESS:      32497 HIT:      28557 MISS:       3940
LLC PREFETCH     ACCESS:          0 HIT:          0 MISS:          0
LLC WRITE        ACCESS:      85549 HIT:      85537 MISS:         12
LLC TRANSLATION  ACCESS:      19212 HIT:      12627 MISS:       6585
LLC PREFETCH REQUESTED:          0 ISSUED:          0 USEFUL:          0 USELESS:          0
LLC AVERAGE MISS LATENCY: 485.6 cycles
cpu0_DTLB TOTAL        ACCESS:  141908479 HIT:  141223577 MISS:     684902
cpu0_DTLB LOAD         ACCESS:  141908479 HIT:  141223577 MISS:     684902
cpu0_DTLB RFO          ACCESS:          0 HIT:          0 MISS:          0
cpu0_DTLB PREFETCH     ACCESS:          0 HIT:          0 MISS:          0
cpu0_DTLB WRITE        ACCESS:          0 HIT:          0 MISS:          0
cpu0_DTLB TRANSLATION  ACCESS:          0 HIT:          0 MISS:          0
cpu0_DTLB PREFETCH REQUESTED:          0 ISSUED:          0 USEFUL:          0 USELESS:          0
cpu0_DTLB AVERAGE MISS LATENCY: 10.42 cycles
cpu0_ITLB TOTAL        ACCESS:    4857305 HIT:    4804198 MISS:      53107
cpu0_ITLB LOAD         ACCESS:    4857305 HIT:    4804198 MISS:      53107
cpu0_ITLB RFO          ACCESS:          0 HIT:          0 MISS:          0
cpu0_ITLB PREFETCH     ACCESS:          0 HIT:          0 MISS:          0
cpu0_ITLB WRITE        ACCESS:          0 HIT:          0 MISS:          0
cpu0_ITLB TRANSLATION  ACCESS:          0 HIT:          0 MISS:          0
cpu0_ITLB PREFETCH REQUESTED:          0 ISSUED:          0 USEFUL:          0 USELESS:          0
cpu0_ITLB AVERAGE MISS LATENCY: 5.009 cycles
cpu0_L1D TOTAL        ACCESS:  188594363 HIT:  186916016 MISS:    1678347
cpu0_L1D LOAD         ACCESS:  105227716 HIT:  103912841 MISS:    1314875
cpu0_L1D RFO          ACCESS:          0 HIT:          0 MISS:          0
cpu0_L1D PREFETCH     ACCESS:          0 HIT:          0 MISS:          0
cpu0_L1D WRITE        ACCESS:   83342181 HIT:   83002109 MISS:     340072
cpu0_L1D TRANSLATION  ACCESS:      24466 HIT:       1066 MISS:      23400
cpu0_L1D PREFETCH REQUESTED:          0 ISSUED:          0 USEFUL:          0 USELESS:          0
cpu0_L1D AVERAGE MISS LATENCY: 22.45 cycles
cpu0_L1I TOTAL        ACCESS:    5595359 HIT:    4852107 MISS:     743252
cpu0_L1I LOAD         ACCESS:    5595359 HIT:    4852107 MISS:     743252
cpu0_L1I RFO          ACCESS:          0 HIT:          0 MISS:          0
cpu0_L1I PREFETCH     ACCESS:          0 HIT:          0 MISS:          0
cpu0_L1I WRITE        ACCESS:          0 HIT:          0 MISS:          0
cpu0_L1I TRANSLATION  ACCESS:          0 HIT:          0 MISS:          0
cpu0_L1I PREFETCH REQUESTED:          0 ISSUED:          0 USEFUL:          0 USELESS:          0
cpu0_L1I AVERAGE MISS LATENCY: 8.993 cycles
cpu0_L2C TOTAL        ACCESS:    1666258 HIT:    1209511 MISS:     456747
cpu0_L2C LOAD         ACCESS:    1316049 HIT:     912822 MISS:     403227
cpu0_L2C RFO          ACCESS:      88290 HIT:      55793 MISS:      32497
cpu0_L2C PREFETCH     ACCESS:          0 HIT:          0 MISS:          0
cpu0_L2C WRITE        ACCESS:     238589 HIT:     236778 MISS:       1811
cpu0_L2C TRANSLATION  ACCESS:      23330 HIT:       4118 MISS:      19212
cpu0_L2C PREFETCH REQUESTED:          0 ISSUED:          0 USEFUL:          0 USELESS:          0
cpu0_L2C AVERAGE MISS LATENCY: 71.71 cycles
cpu0_STLB TOTAL        ACCESS:     506629 HIT:     483835 MISS:      22794
cpu0_STLB LOAD         ACCESS:     506629 HIT:     483835 MISS:      22794
cpu0_STLB RFO          ACCESS:          0 HIT:          0 MISS:          0
cpu0_STLB PREFETCH     ACCESS:          0 HIT:          0 MISS:          0
cpu0_STLB WRITE        ACCESS:          0 HIT:          0 MISS:          0
cpu0_STLB TRANSLATION  ACCESS:          0 HIT:          0 MISS:          0
cpu0_STLB PREFETCH REQUESTED:          0 ISSUED:          0 USEFUL:          0 USELESS:          0
cpu0_STLB AVERAGE MISS LATENCY: 181.3 cycles

DRAM Statistics

Channel 0 RQ ROW_BUFFER_HIT:      13567
  ROW_BUFFER_MISS:      35033
 AVG DBUS CONGESTED CYCLE: 3.7
WQ ROW_BUFFER_HIT: Channel 0 
  ROW_BUFFER_MISS:         98
  FULL:        248
