WARNING: physical memory size is smaller than virtual memory size.

*** ChampSim Multicore Out-of-Order Simulator ***
Warmup Instructions: 50000000
Simulation Instructions: 600000000
Number of CPUs: 1
Page size: 4096

Off-chip DRAM Size: 4 GiB Channels: 1 Width: 64-bit Data Race: 3200 MT/s
Heartbeat CPU 0 instructions: 10000000 cycles: 2500061 heartbeat IPC: 4 cumulative IPC: 4 (Simulation time: 00 hr 00 min 29 sec)
Heartbeat CPU 0 instructions: 20000000 cycles: 5000061 heartbeat IPC: 4 cumulative IPC: 4 (Simulation time: 00 hr 01 min 03 sec)
Heartbeat CPU 0 instructions: 30000000 cycles: 7500061 heartbeat IPC: 4 cumulative IPC: 4 (Simulation time: 00 hr 01 min 48 sec)
Heartbeat CPU 0 instructions: 40000000 cycles: 10000061 heartbeat IPC: 4 cumulative IPC: 4 (Simulation time: 00 hr 02 min 40 sec)
Heartbeat CPU 0 instructions: 50000000 cycles: 12500061 heartbeat IPC: 4 cumulative IPC: 4 (Simulation time: 00 hr 03 min 38 sec)
Warmup finished CPU 0 instructions: 50000000 cycles: 12500062 cumulative IPC: 4 (Simulation time: 00 hr 03 min 38 sec)
Warmup complete CPU 0 instructions: 50000000 cycles: 12500062 cumulative IPC: 4 (Simulation time: 00 hr 03 min 38 sec)
Heartbeat CPU 0 instructions: 60000002 cycles: 16907366 heartbeat IPC: 2.269 cumulative IPC: 2.269 (Simulation time: 00 hr 05 min 15 sec)
Heartbeat CPU 0 instructions: 70000003 cycles: 21889050 heartbeat IPC: 2.007 cumulative IPC: 2.13 (Simulation time: 00 hr 07 min 03 sec)
Heartbeat CPU 0 instructions: 80000001 cycles: 27230745 heartbeat IPC: 1.872 cumulative IPC: 2.037 (Simulation time: 00 hr 08 min 54 sec)
Heartbeat CPU 0 instructions: 90000000 cycles: 31527294 heartbeat IPC: 2.327 cumulative IPC: 2.102 (Simulation time: 00 hr 10 min 33 sec)
Heartbeat CPU 0 instructions: 100000003 cycles: 36379334 heartbeat IPC: 2.061 cumulative IPC: 2.094 (Simulation time: 00 hr 12 min 21 sec)
Heartbeat CPU 0 instructions: 110000002 cycles: 41247374 heartbeat IPC: 2.054 cumulative IPC: 2.087 (Simulation time: 00 hr 14 min 00 sec)
Heartbeat CPU 0 instructions: 120000001 cycles: 46240828 heartbeat IPC: 2.003 cumulative IPC: 2.075 (Simulation time: 00 hr 15 min 46 sec)
Heartbeat CPU 0 instructions: 130000003 cycles: 50807189 heartbeat IPC: 2.19 cumulative IPC: 2.088 (Simulation time: 00 hr 17 min 31 sec)
Heartbeat CPU 0 instructions: 140000002 cycles: 55694832 heartbeat IPC: 2.046 cumulative IPC: 2.084 (Simulation time: 00 hr 19 min 17 sec)
Heartbeat CPU 0 instructions: 150000001 cycles: 60360024 heartbeat IPC: 2.144 cumulative IPC: 2.089 (Simulation time: 00 hr 20 min 55 sec)
Heartbeat CPU 0 instructions: 160000000 cycles: 64996045 heartbeat IPC: 2.157 cumulative IPC: 2.095 (Simulation time: 00 hr 22 min 40 sec)
Heartbeat CPU 0 instructions: 170000000 cycles: 70325364 heartbeat IPC: 1.876 cumulative IPC: 2.075 (Simulation time: 00 hr 24 min 29 sec)
Heartbeat CPU 0 instructions: 180000001 cycles: 76043102 heartbeat IPC: 1.749 cumulative IPC: 2.046 (Simulation time: 00 hr 26 min 24 sec)
Heartbeat CPU 0 instructions: 190000002 cycles: 80511237 heartbeat IPC: 2.238 cumulative IPC: 2.058 (Simulation time: 00 hr 27 min 58 sec)
Heartbeat CPU 0 instructions: 200000002 cycles: 85411245 heartbeat IPC: 2.041 cumulative IPC: 2.057 (Simulation time: 00 hr 29 min 33 sec)
Heartbeat CPU 0 instructions: 210000000 cycles: 90413026 heartbeat IPC: 1.999 cumulative IPC: 2.054 (Simulation time: 00 hr 30 min 24 sec)
Heartbeat CPU 0 instructions: 220000001 cycles: 95334767 heartbeat IPC: 2.032 cumulative IPC: 2.052 (Simulation time: 00 hr 31 min 12 sec)
Heartbeat CPU 0 instructions: 230000002 cycles: 100578650 heartbeat IPC: 1.907 cumulative IPC: 2.044 (Simulation time: 00 hr 32 min 02 sec)
Heartbeat CPU 0 instructions: 240000001 cycles: 105540806 heartbeat IPC: 2.015 cumulative IPC: 2.042 (Simulation time: 00 hr 32 min 50 sec)
Heartbeat CPU 0 instructions: 250000003 cycles: 110715200 heartbeat IPC: 1.933 cumulative IPC: 2.036 (Simulation time: 00 hr 33 min 40 sec)
Heartbeat CPU 0 instructions: 260000001 cycles: 115571230 heartbeat IPC: 2.059 cumulative IPC: 2.037 (Simulation time: 00 hr 34 min 28 sec)
Heartbeat CPU 0 instructions: 270000000 cycles: 123225925 heartbeat IPC: 1.306 cumulative IPC: 1.987 (Simulation time: 00 hr 35 min 32 sec)
Heartbeat CPU 0 instructions: 280000000 cycles: 133946193 heartbeat IPC: 0.9328 cumulative IPC: 1.894 (Simulation time: 00 hr 37 min 00 sec)
Heartbeat CPU 0 instructions: 290000001 cycles: 143137657 heartbeat IPC: 1.088 cumulative IPC: 1.837 (Simulation time: 00 hr 38 min 19 sec)
Heartbeat CPU 0 instructions: 300000003 cycles: 150505952 heartbeat IPC: 1.357 cumulative IPC: 1.812 (Simulation time: 00 hr 39 min 27 sec)
Heartbeat CPU 0 instructions: 310000004 cycles: 160770951 heartbeat IPC: 0.9742 cumulative IPC: 1.754 (Simulation time: 00 hr 40 min 48 sec)
Heartbeat CPU 0 instructions: 320000004 cycles: 166334790 heartbeat IPC: 1.797 cumulative IPC: 1.755 (Simulation time: 00 hr 41 min 43 sec)
Heartbeat CPU 0 instructions: 330000000 cycles: 171546474 heartbeat IPC: 1.919 cumulative IPC: 1.76 (Simulation time: 00 hr 42 min 35 sec)
Heartbeat CPU 0 instructions: 340000001 cycles: 176277114 heartbeat IPC: 2.114 cumulative IPC: 1.771 (Simulation time: 00 hr 43 min 23 sec)
Heartbeat CPU 0 instructions: 350000000 cycles: 181182405 heartbeat IPC: 2.039 cumulative IPC: 1.778 (Simulation time: 00 hr 44 min 11 sec)
Heartbeat CPU 0 instructions: 360000003 cycles: 185875947 heartbeat IPC: 2.131 cumulative IPC: 1.788 (Simulation time: 00 hr 44 min 59 sec)
Heartbeat CPU 0 instructions: 370000001 cycles: 190555576 heartbeat IPC: 2.137 cumulative IPC: 1.797 (Simulation time: 00 hr 45 min 48 sec)
Heartbeat CPU 0 instructions: 380000004 cycles: 195516023 heartbeat IPC: 2.016 cumulative IPC: 1.803 (Simulation time: 00 hr 46 min 38 sec)
Heartbeat CPU 0 instructions: 390000002 cycles: 200364705 heartbeat IPC: 2.062 cumulative IPC: 1.81 (Simulation time: 00 hr 47 min 28 sec)
Heartbeat CPU 0 instructions: 400000000 cycles: 205304481 heartbeat IPC: 2.024 cumulative IPC: 1.815 (Simulation time: 00 hr 48 min 20 sec)
Heartbeat CPU 0 instructions: 410000000 cycles: 211271648 heartbeat IPC: 1.676 cumulative IPC: 1.811 (Simulation time: 00 hr 49 min 21 sec)
Heartbeat CPU 0 instructions: 420000001 cycles: 218233921 heartbeat IPC: 1.436 cumulative IPC: 1.798 (Simulation time: 00 hr 50 min 28 sec)
Heartbeat CPU 0 instructions: 430000000 cycles: 224796228 heartbeat IPC: 1.524 cumulative IPC: 1.79 (Simulation time: 00 hr 51 min 36 sec)
Heartbeat CPU 0 instructions: 440000002 cycles: 231268142 heartbeat IPC: 1.545 cumulative IPC: 1.783 (Simulation time: 00 hr 52 min 43 sec)
Heartbeat CPU 0 instructions: 450000000 cycles: 237583471 heartbeat IPC: 1.583 cumulative IPC: 1.777 (Simulation time: 00 hr 53 min 47 sec)
Heartbeat CPU 0 instructions: 460000002 cycles: 244924664 heartbeat IPC: 1.362 cumulative IPC: 1.764 (Simulation time: 00 hr 54 min 57 sec)
Heartbeat CPU 0 instructions: 470000000 cycles: 251215551 heartbeat IPC: 1.59 cumulative IPC: 1.759 (Simulation time: 00 hr 56 min 00 sec)
Heartbeat CPU 0 instructions: 480000000 cycles: 256132020 heartbeat IPC: 2.034 cumulative IPC: 1.765 (Simulation time: 00 hr 56 min 52 sec)
Heartbeat CPU 0 instructions: 490000001 cycles: 261044536 heartbeat IPC: 2.036 cumulative IPC: 1.77 (Simulation time: 00 hr 57 min 45 sec)
Heartbeat CPU 0 instructions: 500000002 cycles: 265899579 heartbeat IPC: 2.06 cumulative IPC: 1.776 (Simulation time: 00 hr 58 min 37 sec)
Heartbeat CPU 0 instructions: 510000000 cycles: 270802783 heartbeat IPC: 2.039 cumulative IPC: 1.781 (Simulation time: 00 hr 59 min 28 sec)
Heartbeat CPU 0 instructions: 520000000 cycles: 275752111 heartbeat IPC: 2.02 cumulative IPC: 1.785 (Simulation time: 01 hr 00 min 19 sec)
Heartbeat CPU 0 instructions: 530000001 cycles: 282569686 heartbeat IPC: 1.467 cumulative IPC: 1.777 (Simulation time: 01 hr 01 min 23 sec)
Heartbeat CPU 0 instructions: 540000000 cycles: 289259628 heartbeat IPC: 1.495 cumulative IPC: 1.77 (Simulation time: 01 hr 02 min 28 sec)
Heartbeat CPU 0 instructions: 550000002 cycles: 296220191 heartbeat IPC: 1.437 cumulative IPC: 1.762 (Simulation time: 01 hr 03 min 34 sec)
Heartbeat CPU 0 instructions: 560000004 cycles: 300607377 heartbeat IPC: 2.279 cumulative IPC: 1.77 (Simulation time: 01 hr 04 min 21 sec)
Heartbeat CPU 0 instructions: 570000001 cycles: 304957639 heartbeat IPC: 2.299 cumulative IPC: 1.778 (Simulation time: 01 hr 05 min 10 sec)
Heartbeat CPU 0 instructions: 580000003 cycles: 309086042 heartbeat IPC: 2.422 cumulative IPC: 1.787 (Simulation time: 01 hr 05 min 56 sec)
Heartbeat CPU 0 instructions: 590000001 cycles: 313889617 heartbeat IPC: 2.082 cumulative IPC: 1.792 (Simulation time: 01 hr 06 min 47 sec)
Heartbeat CPU 0 instructions: 600000003 cycles: 318477057 heartbeat IPC: 2.18 cumulative IPC: 1.798 (Simulation time: 01 hr 07 min 41 sec)
Heartbeat CPU 0 instructions: 610000001 cycles: 323267762 heartbeat IPC: 2.087 cumulative IPC: 1.802 (Simulation time: 01 hr 08 min 33 sec)
Heartbeat CPU 0 instructions: 620000000 cycles: 328279129 heartbeat IPC: 1.995 cumulative IPC: 1.805 (Simulation time: 01 hr 09 min 25 sec)
Heartbeat CPU 0 instructions: 630000002 cycles: 332484836 heartbeat IPC: 2.378 cumulative IPC: 1.813 (Simulation time: 01 hr 10 min 14 sec)
Heartbeat CPU 0 instructions: 640000004 cycles: 337762222 heartbeat IPC: 1.895 cumulative IPC: 1.814 (Simulation time: 01 hr 11 min 08 sec)
Heartbeat CPU 0 instructions: 650000001 cycles: 342511010 heartbeat IPC: 2.106 cumulative IPC: 1.818 (Simulation time: 01 hr 12 min 01 sec)
Simulation finished CPU 0 instructions: 600000001 cycles: 330010949 cumulative IPC: 1.818 (Simulation time: 01 hr 12 min 01 sec)
Simulation complete CPU 0 instructions: 600000001 cycles: 330010949 cumulative IPC: 1.818 (Simulation time: 01 hr 12 min 01 sec)

ChampSim completed all CPUs

=== Simulation ===
CPU 0 runs traces/400.perlbench-50B.champsimtrace.xz
Region of Interest Statistics

CPU 0 cumulative IPC: 1.818 instructions: 600000001 cycles: 330010949
CPU 0 Branch Prediction Accuracy: 93.83% MPKI: 12.71 Average ROB Occupancy at Mispredict: 29.15
Branch type MPKI
BRANCH_DIRECT_JUMP: 0.0176
BRANCH_INDIRECT: 0.38
BRANCH_CONDITIONAL: 11.9
BRANCH_DIRECT_CALL: 0.0067
BRANCH_INDIRECT_CALL: 0.431
BRANCH_RETURN: 0.0161

LLC TOTAL        ACCESS:     850176 HIT:     730854 MISS:     119322
LLC LOAD         ACCESS:     587070 HIT:     497481 MISS:      89589
LLC RFO          ACCESS:      47474 HIT:      37812 MISS:       9662
LLC PREFETCH     ACCESS:      65404 HIT:      54786 MISS:      10618
LLC WRITE        ACCESS:     128145 HIT:     127924 MISS:        221
LLC TRANSLATION  ACCESS:      22083 HIT:      12851 MISS:       9232
LLC PREFETCH REQUESTED:      65404 ISSUED:      65404 USEFUL:       6625 USELESS:        243
LLC AVERAGE MISS LATENCY: 477.6 cycles
cpu0_DTLB TOTAL        ACCESS:  156793654 HIT:  155493709 MISS:    1299945
cpu0_DTLB LOAD         ACCESS:  156793654 HIT:  155493709 MISS:    1299945
cpu0_DTLB RFO          ACCESS:          0 HIT:          0 MISS:          0
cpu0_DTLB PREFETCH     ACCESS:          0 HIT:          0 MISS:          0
cpu0_DTLB WRITE        ACCESS:          0 HIT:          0 MISS:          0
cpu0_DTLB TRANSLATION  ACCESS:          0 HIT:          0 MISS:          0
cpu0_DTLB PREFETCH REQUESTED:          0 ISSUED:          0 USEFUL:          0 USELESS:          0
cpu0_DTLB AVERAGE MISS LATENCY: 9.961 cycles
cpu0_ITLB TOTAL        ACCESS:    8932918 HIT:    8734328 MISS:     198590
cpu0_ITLB LOAD         ACCESS:    8932918 HIT:    8734328 MISS:     198590
cpu0_ITLB RFO          ACCESS:          0 HIT:          0 MISS:          0
cpu0_ITLB PREFETCH     ACCESS:          0 HIT:          0 MISS:          0
cpu0_ITLB WRITE        ACCESS:          0 HIT:          0 MISS:          0
cpu0_ITLB TRANSLATION  ACCESS:          0 HIT:          0 MISS:          0
cpu0_ITLB PREFETCH REQUESTED:          0 ISSUED:          0 USEFUL:          0 USELESS:          0
cpu0_ITLB AVERAGE MISS LATENCY: 2.597 cycles
cpu0_L1D TOTAL        ACCESS:  203657023 HIT:  200020377 MISS:    3636646
cpu0_L1D LOAD         ACCESS:  117979951 HIT:  114984702 MISS:    2995249
cpu0_L1D RFO          ACCESS:          0 HIT:          0 MISS:          0
cpu0_L1D PREFETCH     ACCESS:          0 HIT:          0 MISS:          0
cpu0_L1D WRITE        ACCESS:   85648526 HIT:   85034268 MISS:     614258
cpu0_L1D TRANSLATION  ACCESS:      28546 HIT:       1407 MISS:      27139
cpu0_L1D PREFETCH REQUESTED:          0 ISSUED:          0 USEFUL:          0 USELESS:          0
cpu0_L1D AVERAGE MISS LATENCY: 20.89 cycles
cpu0_L1I TOTAL        ACCESS:   10371525 HIT:    8574065 MISS:    1797460
cpu0_L1I LOAD         ACCESS:   10371525 HIT:    8574065 MISS:    1797460
cpu0_L1I RFO          ACCESS:          0 HIT:          0 MISS:          0
cpu0_L1I PREFETCH     ACCESS:          0 HIT:          0 MISS:          0
cpu0_L1I WRITE        ACCESS:          0 HIT:          0 MISS:          0
cpu0_L1I TRANSLATION  ACCESS:          0 HIT:          0 MISS:          0
cpu0_L1I PREFETCH REQUESTED:          0 ISSUED:          0 USEFUL:          0 USELESS:          0
cpu0_L1I AVERAGE MISS LATENCY: 9.196 cycles
cpu0_L2C TOTAL        ACCESS:    3837242 HIT:    3177372 MISS:     659870
cpu0_L2C LOAD         ACCESS:    3106487 HIT:    2519417 MISS:     587070
cpu0_L2C RFO          ACCESS:     191757 HIT:     144283 MISS:      47474
cpu0_L2C PREFETCH     ACCESS:          0 HIT:          0 MISS:          0
cpu0_L2C WRITE        ACCESS:     511934 HIT:     508691 MISS:       3243
cpu0_L2C TRANSLATION  ACCESS:      27064 HIT:       4981 MISS:      22083
cpu0_L2C PREFETCH REQUESTED:          0 ISSUED:          0 USEFUL:          0 USELESS:          0
cpu0_L2C AVERAGE MISS LATENCY: 98.12 cycles
cpu0_STLB TOTAL        ACCESS:    1009173 HIT:     982479 MISS:      26694
cpu0_STLB LOAD         ACCESS:    1009173 HIT:     982479 MISS:      26694
cpu0_STLB RFO          ACCESS:          0 HIT:          0 MISS:          0
cpu0_STLB PREFETCH     ACCESS:          0 HIT:          0 MISS:          0
cpu0_STLB WRITE        ACCESS:          0 HIT:          0 MISS:          0
cpu0_STLB TRANSLATION  ACCESS:          0 HIT:          0 MISS:          0
cpu0_STLB PREFETCH REQUESTED:          0 ISSUED:          0 USEFUL:          0 USELESS:          0
cpu0_STLB AVERAGE MISS LATENCY: 256.8 cycles

DRAM Statistics

Channel 0 RQ ROW_BUFFER_HIT:      35892
  ROW_BUFFER_MISS:      81344
 AVG DBUS CONGESTED CYCLE: 3.74
WQ ROW_BUFFER_HIT: Channel 0 
  ROW_BUFFER_MISS:       1021
  FULL:       2324
