WARNING: physical memory size is smaller than virtual memory size.

*** ChampSim Multicore Out-of-Order Simulator ***
Warmup Instructions: 50000000
Simulation Instructions: 600000000
Number of CPUs: 1
Page size: 4096

Off-chip DRAM Size: 4 GiB Channels: 1 Width: 64-bit Data Race: 3200 MT/s
Heartbeat CPU 0 instructions: 10000000 cycles: 2500061 heartbeat IPC: 4 cumulative IPC: 4 (Simulation time: 00 hr 00 min 19 sec)
Heartbeat CPU 0 instructions: 20000000 cycles: 5000061 heartbeat IPC: 4 cumulative IPC: 4 (Simulation time: 00 hr 00 min 42 sec)
Heartbeat CPU 0 instructions: 30000000 cycles: 7500061 heartbeat IPC: 4 cumulative IPC: 4 (Simulation time: 00 hr 01 min 11 sec)
Heartbeat CPU 0 instructions: 40000000 cycles: 10000061 heartbeat IPC: 4 cumulative IPC: 4 (Simulation time: 00 hr 01 min 42 sec)
Heartbeat CPU 0 instructions: 50000000 cycles: 12500061 heartbeat IPC: 4 cumulative IPC: 4 (Simulation time: 00 hr 02 min 28 sec)
Warmup finished CPU 0 instructions: 50000000 cycles: 12500062 cumulative IPC: 4 (Simulation time: 00 hr 02 min 28 sec)
Warmup complete CPU 0 instructions: 50000000 cycles: 12500062 cumulative IPC: 4 (Simulation time: 00 hr 02 min 28 sec)
Heartbeat CPU 0 instructions: 60000002 cycles: 16897168 heartbeat IPC: 2.274 cumulative IPC: 2.274 (Simulation time: 00 hr 03 min 45 sec)
Heartbeat CPU 0 instructions: 70000003 cycles: 21874323 heartbeat IPC: 2.009 cumulative IPC: 2.134 (Simulation time: 00 hr 05 min 19 sec)
Heartbeat CPU 0 instructions: 80000001 cycles: 27217652 heartbeat IPC: 1.871 cumulative IPC: 2.038 (Simulation time: 00 hr 07 min 11 sec)
Heartbeat CPU 0 instructions: 90000000 cycles: 31512174 heartbeat IPC: 2.329 cumulative IPC: 2.104 (Simulation time: 00 hr 08 min 51 sec)
Heartbeat CPU 0 instructions: 100000003 cycles: 36360283 heartbeat IPC: 2.063 cumulative IPC: 2.096 (Simulation time: 00 hr 10 min 29 sec)
Heartbeat CPU 0 instructions: 110000002 cycles: 41223823 heartbeat IPC: 2.056 cumulative IPC: 2.089 (Simulation time: 00 hr 12 min 08 sec)
Heartbeat CPU 0 instructions: 120000001 cycles: 46216185 heartbeat IPC: 2.003 cumulative IPC: 2.076 (Simulation time: 00 hr 13 min 58 sec)
Heartbeat CPU 0 instructions: 130000003 cycles: 50774631 heartbeat IPC: 2.194 cumulative IPC: 2.09 (Simulation time: 00 hr 15 min 39 sec)
Heartbeat CPU 0 instructions: 140000002 cycles: 55657500 heartbeat IPC: 2.048 cumulative IPC: 2.085 (Simulation time: 00 hr 17 min 28 sec)
Heartbeat CPU 0 instructions: 150000001 cycles: 60315882 heartbeat IPC: 2.147 cumulative IPC: 2.091 (Simulation time: 00 hr 19 min 07 sec)
Heartbeat CPU 0 instructions: 160000000 cycles: 64944965 heartbeat IPC: 2.16 cumulative IPC: 2.097 (Simulation time: 00 hr 20 min 41 sec)
Heartbeat CPU 0 instructions: 170000000 cycles: 70269944 heartbeat IPC: 1.878 cumulative IPC: 2.077 (Simulation time: 00 hr 22 min 27 sec)
Heartbeat CPU 0 instructions: 180000001 cycles: 75985244 heartbeat IPC: 1.75 cumulative IPC: 2.048 (Simulation time: 00 hr 24 min 16 sec)
Heartbeat CPU 0 instructions: 190000002 cycles: 80446549 heartbeat IPC: 2.241 cumulative IPC: 2.06 (Simulation time: 00 hr 26 min 00 sec)
Heartbeat CPU 0 instructions: 200000002 cycles: 85337187 heartbeat IPC: 2.045 cumulative IPC: 2.059 (Simulation time: 00 hr 27 min 35 sec)
Heartbeat CPU 0 instructions: 210000000 cycles: 90334775 heartbeat IPC: 2.001 cumulative IPC: 2.056 (Simulation time: 00 hr 29 min 24 sec)
Heartbeat CPU 0 instructions: 220000001 cycles: 95256096 heartbeat IPC: 2.032 cumulative IPC: 2.054 (Simulation time: 00 hr 30 min 47 sec)
Heartbeat CPU 0 instructions: 230000002 cycles: 100493367 heartbeat IPC: 1.909 cumulative IPC: 2.046 (Simulation time: 00 hr 31 min 36 sec)
Heartbeat CPU 0 instructions: 240000001 cycles: 105450230 heartbeat IPC: 2.017 cumulative IPC: 2.044 (Simulation time: 00 hr 32 min 27 sec)
Heartbeat CPU 0 instructions: 250000003 cycles: 110619443 heartbeat IPC: 1.935 cumulative IPC: 2.038 (Simulation time: 00 hr 33 min 16 sec)
Heartbeat CPU 0 instructions: 260000001 cycles: 115478521 heartbeat IPC: 2.058 cumulative IPC: 2.039 (Simulation time: 00 hr 34 min 04 sec)
Heartbeat CPU 0 instructions: 270000000 cycles: 122730418 heartbeat IPC: 1.379 cumulative IPC: 1.996 (Simulation time: 00 hr 35 min 07 sec)
Heartbeat CPU 0 instructions: 280000000 cycles: 132785131 heartbeat IPC: 0.9946 cumulative IPC: 1.912 (Simulation time: 00 hr 36 min 25 sec)
Heartbeat CPU 0 instructions: 290000001 cycles: 141465527 heartbeat IPC: 1.152 cumulative IPC: 1.861 (Simulation time: 00 hr 37 min 40 sec)
Heartbeat CPU 0 instructions: 300000003 cycles: 148721637 heartbeat IPC: 1.378 cumulative IPC: 1.835 (Simulation time: 00 hr 38 min 51 sec)
Heartbeat CPU 0 instructions: 310000004 cycles: 158711907 heartbeat IPC: 1.001 cumulative IPC: 1.778 (Simulation time: 00 hr 40 min 11 sec)
Heartbeat CPU 0 instructions: 320000004 cycles: 164254457 heartbeat IPC: 1.804 cumulative IPC: 1.779 (Simulation time: 00 hr 41 min 07 sec)
Heartbeat CPU 0 instructions: 330000000 cycles: 169468567 heartbeat IPC: 1.918 cumulative IPC: 1.784 (Simulation time: 00 hr 41 min 58 sec)
Heartbeat CPU 0 instructions: 340000001 cycles: 174285237 heartbeat IPC: 2.076 cumulative IPC: 1.793 (Simulation time: 00 hr 42 min 46 sec)
Heartbeat CPU 0 instructions: 350000000 cycles: 179276363 heartbeat IPC: 2.004 cumulative IPC: 1.799 (Simulation time: 00 hr 43 min 37 sec)
Heartbeat CPU 0 instructions: 360000003 cycles: 184047490 heartbeat IPC: 2.096 cumulative IPC: 1.807 (Simulation time: 00 hr 44 min 25 sec)
Heartbeat CPU 0 instructions: 370000001 cycles: 188787530 heartbeat IPC: 2.11 cumulative IPC: 1.815 (Simulation time: 00 hr 45 min 12 sec)
Heartbeat CPU 0 instructions: 380000004 cycles: 193789712 heartbeat IPC: 1.999 cumulative IPC: 1.82 (Simulation time: 00 hr 46 min 00 sec)
Heartbeat CPU 0 instructions: 390000002 cycles: 198695350 heartbeat IPC: 2.038 cumulative IPC: 1.826 (Simulation time: 00 hr 46 min 49 sec)
Heartbeat CPU 0 instructions: 400000000 cycles: 203657544 heartbeat IPC: 2.015 cumulative IPC: 1.831 (Simulation time: 00 hr 47 min 36 sec)
Heartbeat CPU 0 instructions: 410000000 cycles: 209616431 heartbeat IPC: 1.678 cumulative IPC: 1.826 (Simulation time: 00 hr 48 min 30 sec)
Heartbeat CPU 0 instructions: 420000001 cycles: 216578340 heartbeat IPC: 1.436 cumulative IPC: 1.813 (Simulation time: 00 hr 49 min 32 sec)
Heartbeat CPU 0 instructions: 430000000 cycles: 223149028 heartbeat IPC: 1.522 cumulative IPC: 1.804 (Simulation time: 00 hr 50 min 40 sec)
Heartbeat CPU 0 instructions: 440000002 cycles: 229622045 heartbeat IPC: 1.545 cumulative IPC: 1.796 (Simulation time: 00 hr 51 min 46 sec)
Heartbeat CPU 0 instructions: 450000001 cycles: 235928755 heartbeat IPC: 1.586 cumulative IPC: 1.79 (Simulation time: 00 hr 52 min 51 sec)
Heartbeat CPU 0 instructions: 460000002 cycles: 243470795 heartbeat IPC: 1.326 cumulative IPC: 1.775 (Simulation time: 00 hr 54 min 03 sec)
Heartbeat CPU 0 instructions: 470000000 cycles: 250356901 heartbeat IPC: 1.452 cumulative IPC: 1.766 (Simulation time: 00 hr 55 min 09 sec)
Heartbeat CPU 0 instructions: 480000000 cycles: 255430147 heartbeat IPC: 1.971 cumulative IPC: 1.77 (Simulation time: 00 hr 55 min 58 sec)
Heartbeat CPU 0 instructions: 490000001 cycles: 260583783 heartbeat IPC: 1.94 cumulative IPC: 1.774 (Simulation time: 00 hr 56 min 48 sec)
Heartbeat CPU 0 instructions: 500000002 cycles: 265603254 heartbeat IPC: 1.992 cumulative IPC: 1.778 (Simulation time: 00 hr 57 min 37 sec)
Heartbeat CPU 0 instructions: 510000000 cycles: 270624821 heartbeat IPC: 1.991 cumulative IPC: 1.782 (Simulation time: 00 hr 58 min 27 sec)
Heartbeat CPU 0 instructions: 520000000 cycles: 275640425 heartbeat IPC: 1.994 cumulative IPC: 1.786 (Simulation time: 00 hr 59 min 15 sec)
Heartbeat CPU 0 instructions: 530000001 cycles: 282747192 heartbeat IPC: 1.407 cumulative IPC: 1.776 (Simulation time: 01 hr 00 min 16 sec)
Heartbeat CPU 0 instructions: 540000000 cycles: 289685773 heartbeat IPC: 1.441 cumulative IPC: 1.768 (Simulation time: 01 hr 01 min 17 sec)
Heartbeat CPU 0 instructions: 550000002 cycles: 297248761 heartbeat IPC: 1.322 cumulative IPC: 1.756 (Simulation time: 01 hr 02 min 21 sec)
Heartbeat CPU 0 instructions: 560000004 cycles: 301723182 heartbeat IPC: 2.235 cumulative IPC: 1.763 (Simulation time: 01 hr 03 min 06 sec)
Heartbeat CPU 0 instructions: 570000001 cycles: 306088309 heartbeat IPC: 2.291 cumulative IPC: 1.771 (Simulation time: 01 hr 03 min 52 sec)
Heartbeat CPU 0 instructions: 580000003 cycles: 310245806 heartbeat IPC: 2.405 cumulative IPC: 1.78 (Simulation time: 01 hr 04 min 36 sec)
Heartbeat CPU 0 instructions: 590000001 cycles: 315079246 heartbeat IPC: 2.069 cumulative IPC: 1.785 (Simulation time: 01 hr 05 min 24 sec)
Heartbeat CPU 0 instructions: 600000003 cycles: 319679820 heartbeat IPC: 2.174 cumulative IPC: 1.79 (Simulation time: 01 hr 06 min 14 sec)
Heartbeat CPU 0 instructions: 610000001 cycles: 324489203 heartbeat IPC: 2.079 cumulative IPC: 1.795 (Simulation time: 01 hr 07 min 05 sec)
Heartbeat CPU 0 instructions: 620000000 cycles: 329509149 heartbeat IPC: 1.992 cumulative IPC: 1.798 (Simulation time: 01 hr 07 min 57 sec)
Heartbeat CPU 0 instructions: 630000002 cycles: 333722615 heartbeat IPC: 2.373 cumulative IPC: 1.806 (Simulation time: 01 hr 08 min 45 sec)
Heartbeat CPU 0 instructions: 640000004 cycles: 339019289 heartbeat IPC: 1.888 cumulative IPC: 1.807 (Simulation time: 01 hr 09 min 41 sec)
Heartbeat CPU 0 instructions: 650000001 cycles: 343771492 heartbeat IPC: 2.104 cumulative IPC: 1.811 (Simulation time: 01 hr 10 min 32 sec)
Simulation finished CPU 0 instructions: 600000001 cycles: 331271431 cumulative IPC: 1.811 (Simulation time: 01 hr 10 min 32 sec)
Simulation complete CPU 0 instructions: 600000001 cycles: 331271431 cumulative IPC: 1.811 (Simulation time: 01 hr 10 min 32 sec)

ChampSim completed all CPUs

=== Simulation ===
CPU 0 runs traces/400.perlbench-50B.champsimtrace.xz
Region of Interest Statistics

CPU 0 cumulative IPC: 1.811 instructions: 600000001 cycles: 331271431
CPU 0 Branch Prediction Accuracy: 93.83% MPKI: 12.71 Average ROB Occupancy at Mispredict: 29.12
Branch type MPKI
BRANCH_DIRECT_JUMP: 0.0176
BRANCH_INDIRECT: 0.38
BRANCH_CONDITIONAL: 11.9
BRANCH_DIRECT_CALL: 0.0067
BRANCH_INDIRECT_CALL: 0.431
BRANCH_RETURN: 0.0161

LLC TOTAL        ACCESS:    1371214 HIT:    1180536 MISS:     190678
LLC LOAD         ACCESS:     586436 HIT:     503921 MISS:      82515
LLC RFO          ACCESS:      48054 HIT:      37600 MISS:      10454
LLC PREFETCH     ACCESS:     586436 HIT:     499359 MISS:      87077
LLC WRITE        ACCESS:     128174 HIT:     127464 MISS:        710
LLC TRANSLATION  ACCESS:      22114 HIT:      12192 MISS:       9922
LLC PREFETCH REQUESTED:     586436 ISSUED:     586436 USEFUL:      33459 USELESS:       9634
LLC AVERAGE MISS LATENCY: 475 cycles
cpu0_DTLB TOTAL        ACCESS:  156795566 HIT:  155494940 MISS:    1300626
cpu0_DTLB LOAD         ACCESS:  156795566 HIT:  155494940 MISS:    1300626
cpu0_DTLB RFO          ACCESS:          0 HIT:          0 MISS:          0
cpu0_DTLB PREFETCH     ACCESS:          0 HIT:          0 MISS:          0
cpu0_DTLB WRITE        ACCESS:          0 HIT:          0 MISS:          0
cpu0_DTLB TRANSLATION  ACCESS:          0 HIT:          0 MISS:          0
cpu0_DTLB PREFETCH REQUESTED:          0 ISSUED:          0 USEFUL:          0 USELESS:          0
cpu0_DTLB AVERAGE MISS LATENCY: 10.46 cycles
cpu0_ITLB TOTAL        ACCESS:    8932031 HIT:    8733428 MISS:     198603
cpu0_ITLB LOAD         ACCESS:    8932031 HIT:    8733428 MISS:     198603
cpu0_ITLB RFO          ACCESS:          0 HIT:          0 MISS:          0
cpu0_ITLB PREFETCH     ACCESS:          0 HIT:          0 MISS:          0
cpu0_ITLB WRITE        ACCESS:          0 HIT:          0 MISS:          0
cpu0_ITLB TRANSLATION  ACCESS:          0 HIT:          0 MISS:          0
cpu0_ITLB PREFETCH REQUESTED:          0 ISSUED:          0 USEFUL:          0 USELESS:          0
cpu0_ITLB AVERAGE MISS LATENCY: 2.852 cycles
cpu0_L1D TOTAL        ACCESS:  203662359 HIT:  200024363 MISS:    3637996
cpu0_L1D LOAD         ACCESS:  117984919 HIT:  114989311 MISS:    2995608
cpu0_L1D RFO          ACCESS:          0 HIT:          0 MISS:          0
cpu0_L1D PREFETCH     ACCESS:          0 HIT:          0 MISS:          0
cpu0_L1D WRITE        ACCESS:   85648895 HIT:   85033638 MISS:     615257
cpu0_L1D TRANSLATION  ACCESS:      28545 HIT:       1414 MISS:      27131
cpu0_L1D PREFETCH REQUESTED:          0 ISSUED:          0 USEFUL:          0 USELESS:          0
cpu0_L1D AVERAGE MISS LATENCY: 21.42 cycles
cpu0_L1I TOTAL        ACCESS:   10370862 HIT:    8573719 MISS:    1797143
cpu0_L1I LOAD         ACCESS:   10370862 HIT:    8573719 MISS:    1797143
cpu0_L1I RFO          ACCESS:          0 HIT:          0 MISS:          0
cpu0_L1I PREFETCH     ACCESS:          0 HIT:          0 MISS:          0
cpu0_L1I WRITE        ACCESS:          0 HIT:          0 MISS:          0
cpu0_L1I TRANSLATION  ACCESS:          0 HIT:          0 MISS:          0
cpu0_L1I PREFETCH REQUESTED:          0 ISSUED:          0 USEFUL:          0 USELESS:          0
cpu0_L1I AVERAGE MISS LATENCY: 8.955 cycles
cpu0_L2C TOTAL        ACCESS:    3837198 HIT:    3177207 MISS:     659991
cpu0_L2C LOAD         ACCESS:    3106488 HIT:    2520052 MISS:     586436
cpu0_L2C RFO          ACCESS:     191787 HIT:     143733 MISS:      48054
cpu0_L2C PREFETCH     ACCESS:          0 HIT:          0 MISS:          0
cpu0_L2C WRITE        ACCESS:     511870 HIT:     508483 MISS:       3387
cpu0_L2C TRANSLATION  ACCESS:      27053 HIT:       4939 MISS:      22114
cpu0_L2C PREFETCH REQUESTED:          0 ISSUED:          0 USEFUL:          0 USELESS:          0
cpu0_L2C AVERAGE MISS LATENCY: 100.4 cycles
cpu0_STLB TOTAL        ACCESS:    1009175 HIT:     982483 MISS:      26692
cpu0_STLB LOAD         ACCESS:    1009175 HIT:     982483 MISS:      26692
cpu0_STLB RFO          ACCESS:          0 HIT:          0 MISS:          0
cpu0_STLB PREFETCH     ACCESS:          0 HIT:          0 MISS:          0
cpu0_STLB WRITE        ACCESS:          0 HIT:          0 MISS:          0
cpu0_STLB TRANSLATION  ACCESS:          0 HIT:          0 MISS:          0
cpu0_STLB PREFETCH REQUESTED:          0 ISSUED:          0 USEFUL:          0 USELESS:          0
cpu0_STLB AVERAGE MISS LATENCY: 283.5 cycles

DRAM Statistics

Channel 0 RQ ROW_BUFFER_HIT:      44216
  ROW_BUFFER_MISS:     118034
 AVG DBUS CONGESTED CYCLE: 3.815
WQ ROW_BUFFER_HIT: Channel 0 
  ROW_BUFFER_MISS:       3292
  FULL:       7253
