WARNING: physical memory size is smaller than virtual memory size.

*** ChampSim Multicore Out-of-Order Simulator ***
Warmup Instructions: 50000000
Simulation Instructions: 600000000
Number of CPUs: 1
Page size: 4096

Off-chip DRAM Size: 4 GiB Channels: 1 Width: 64-bit Data Race: 3200 MT/s
Heartbeat CPU 0 instructions: 10000000 cycles: 2500061 heartbeat IPC: 4 cumulative IPC: 4 (Simulation time: 00 hr 00 min 33 sec)
Heartbeat CPU 0 instructions: 20000000 cycles: 5000061 heartbeat IPC: 4 cumulative IPC: 4 (Simulation time: 00 hr 01 min 07 sec)
Heartbeat CPU 0 instructions: 30000000 cycles: 7500061 heartbeat IPC: 4 cumulative IPC: 4 (Simulation time: 00 hr 01 min 42 sec)
Heartbeat CPU 0 instructions: 40000000 cycles: 10000061 heartbeat IPC: 4 cumulative IPC: 4 (Simulation time: 00 hr 02 min 14 sec)
Heartbeat CPU 0 instructions: 50000000 cycles: 12500061 heartbeat IPC: 4 cumulative IPC: 4 (Simulation time: 00 hr 02 min 48 sec)
Warmup finished CPU 0 instructions: 50000000 cycles: 12500062 cumulative IPC: 4 (Simulation time: 00 hr 02 min 48 sec)
Warmup complete CPU 0 instructions: 50000000 cycles: 12500062 cumulative IPC: 4 (Simulation time: 00 hr 02 min 48 sec)
Heartbeat CPU 0 instructions: 60000002 cycles: 16435783 heartbeat IPC: 2.541 cumulative IPC: 2.541 (Simulation time: 00 hr 03 min 34 sec)
Heartbeat CPU 0 instructions: 70000003 cycles: 20749204 heartbeat IPC: 2.318 cumulative IPC: 2.424 (Simulation time: 00 hr 04 min 23 sec)
Heartbeat CPU 0 instructions: 80000003 cycles: 25212938 heartbeat IPC: 2.24 cumulative IPC: 2.36 (Simulation time: 00 hr 05 min 11 sec)
Heartbeat CPU 0 instructions: 90000000 cycles: 28902625 heartbeat IPC: 2.71 cumulative IPC: 2.439 (Simulation time: 00 hr 05 min 53 sec)
Heartbeat CPU 0 instructions: 100000003 cycles: 32797283 heartbeat IPC: 2.568 cumulative IPC: 2.463 (Simulation time: 00 hr 06 min 36 sec)
Heartbeat CPU 0 instructions: 110000002 cycles: 36888882 heartbeat IPC: 2.444 cumulative IPC: 2.46 (Simulation time: 00 hr 07 min 17 sec)
Heartbeat CPU 0 instructions: 120000001 cycles: 40602045 heartbeat IPC: 2.693 cumulative IPC: 2.491 (Simulation time: 00 hr 07 min 56 sec)
Heartbeat CPU 0 instructions: 130000003 cycles: 44366187 heartbeat IPC: 2.657 cumulative IPC: 2.511 (Simulation time: 00 hr 08 min 36 sec)
Heartbeat CPU 0 instructions: 140000002 cycles: 48491614 heartbeat IPC: 2.424 cumulative IPC: 2.501 (Simulation time: 00 hr 09 min 16 sec)
Heartbeat CPU 0 instructions: 150000001 cycles: 52535644 heartbeat IPC: 2.473 cumulative IPC: 2.498 (Simulation time: 00 hr 09 min 56 sec)
Heartbeat CPU 0 instructions: 160000000 cycles: 56184366 heartbeat IPC: 2.741 cumulative IPC: 2.518 (Simulation time: 00 hr 10 min 35 sec)
Heartbeat CPU 0 instructions: 170000001 cycles: 60350038 heartbeat IPC: 2.401 cumulative IPC: 2.508 (Simulation time: 00 hr 11 min 16 sec)
Heartbeat CPU 0 instructions: 180000001 cycles: 63805525 heartbeat IPC: 2.894 cumulative IPC: 2.534 (Simulation time: 00 hr 11 min 54 sec)
Heartbeat CPU 0 instructions: 190000002 cycles: 67382191 heartbeat IPC: 2.796 cumulative IPC: 2.551 (Simulation time: 00 hr 12 min 33 sec)
Heartbeat CPU 0 instructions: 200000002 cycles: 71153161 heartbeat IPC: 2.652 cumulative IPC: 2.557 (Simulation time: 00 hr 13 min 12 sec)
Heartbeat CPU 0 instructions: 210000000 cycles: 74788089 heartbeat IPC: 2.751 cumulative IPC: 2.569 (Simulation time: 00 hr 13 min 50 sec)
Heartbeat CPU 0 instructions: 220000001 cycles: 78655984 heartbeat IPC: 2.585 cumulative IPC: 2.57 (Simulation time: 00 hr 14 min 30 sec)
Heartbeat CPU 0 instructions: 230000002 cycles: 82491062 heartbeat IPC: 2.608 cumulative IPC: 2.572 (Simulation time: 00 hr 15 min 08 sec)
Heartbeat CPU 0 instructions: 240000001 cycles: 86693138 heartbeat IPC: 2.38 cumulative IPC: 2.561 (Simulation time: 00 hr 15 min 49 sec)
Heartbeat CPU 0 instructions: 250000003 cycles: 91251932 heartbeat IPC: 2.194 cumulative IPC: 2.54 (Simulation time: 00 hr 16 min 30 sec)
Heartbeat CPU 0 instructions: 260000000 cycles: 95043028 heartbeat IPC: 2.638 cumulative IPC: 2.544 (Simulation time: 00 hr 17 min 10 sec)
Heartbeat CPU 0 instructions: 270000003 cycles: 101666040 heartbeat IPC: 1.51 cumulative IPC: 2.467 (Simulation time: 00 hr 18 min 04 sec)
Heartbeat CPU 0 instructions: 280000000 cycles: 111310609 heartbeat IPC: 1.037 cumulative IPC: 2.328 (Simulation time: 00 hr 19 min 13 sec)
Heartbeat CPU 0 instructions: 290000000 cycles: 119908703 heartbeat IPC: 1.163 cumulative IPC: 2.234 (Simulation time: 00 hr 20 min 20 sec)
Heartbeat CPU 0 instructions: 300000003 cycles: 126987384 heartbeat IPC: 1.413 cumulative IPC: 2.184 (Simulation time: 00 hr 21 min 20 sec)
Heartbeat CPU 0 instructions: 310000004 cycles: 136773971 heartbeat IPC: 1.022 cumulative IPC: 2.092 (Simulation time: 00 hr 22 min 34 sec)
Heartbeat CPU 0 instructions: 320000004 cycles: 141643756 heartbeat IPC: 2.053 cumulative IPC: 2.091 (Simulation time: 00 hr 23 min 20 sec)
Heartbeat CPU 0 instructions: 330000000 cycles: 145635510 heartbeat IPC: 2.505 cumulative IPC: 2.103 (Simulation time: 00 hr 24 min 01 sec)
Heartbeat CPU 0 instructions: 340000001 cycles: 149476368 heartbeat IPC: 2.604 cumulative IPC: 2.117 (Simulation time: 00 hr 24 min 41 sec)
Heartbeat CPU 0 instructions: 350000004 cycles: 153426748 heartbeat IPC: 2.531 cumulative IPC: 2.129 (Simulation time: 00 hr 25 min 21 sec)
Heartbeat CPU 0 instructions: 360000003 cycles: 157138276 heartbeat IPC: 2.694 cumulative IPC: 2.143 (Simulation time: 00 hr 26 min 01 sec)
Heartbeat CPU 0 instructions: 370000001 cycles: 160849545 heartbeat IPC: 2.694 cumulative IPC: 2.157 (Simulation time: 00 hr 26 min 41 sec)
Heartbeat CPU 0 instructions: 380000004 cycles: 164439506 heartbeat IPC: 2.786 cumulative IPC: 2.172 (Simulation time: 00 hr 27 min 21 sec)
Heartbeat CPU 0 instructions: 390000002 cycles: 168088500 heartbeat IPC: 2.74 cumulative IPC: 2.185 (Simulation time: 00 hr 28 min 00 sec)
Heartbeat CPU 0 instructions: 400000000 cycles: 172040837 heartbeat IPC: 2.53 cumulative IPC: 2.194 (Simulation time: 00 hr 28 min 41 sec)
Heartbeat CPU 0 instructions: 410000000 cycles: 177756626 heartbeat IPC: 1.75 cumulative IPC: 2.178 (Simulation time: 00 hr 29 min 30 sec)
Heartbeat CPU 0 instructions: 420000003 cycles: 185342254 heartbeat IPC: 1.318 cumulative IPC: 2.141 (Simulation time: 00 hr 30 min 30 sec)
Heartbeat CPU 0 instructions: 430000000 cycles: 191833004 heartbeat IPC: 1.541 cumulative IPC: 2.119 (Simulation time: 00 hr 31 min 27 sec)
Heartbeat CPU 0 instructions: 440000004 cycles: 197871984 heartbeat IPC: 1.656 cumulative IPC: 2.104 (Simulation time: 00 hr 32 min 21 sec)
Heartbeat CPU 0 instructions: 450000001 cycles: 204168585 heartbeat IPC: 1.588 cumulative IPC: 2.087 (Simulation time: 00 hr 33 min 17 sec)
Heartbeat CPU 0 instructions: 460000002 cycles: 212154202 heartbeat IPC: 1.252 cumulative IPC: 2.054 (Simulation time: 00 hr 34 min 20 sec)
Heartbeat CPU 0 instructions: 470000003 cycles: 218915241 heartbeat IPC: 1.479 cumulative IPC: 2.035 (Simulation time: 00 hr 35 min 17 sec)
Heartbeat CPU 0 instructions: 480000003 cycles: 222743301 heartbeat IPC: 2.612 cumulative IPC: 2.045 (Simulation time: 00 hr 35 min 56 sec)
Heartbeat CPU 0 instructions: 490000001 cycles: 226723696 heartbeat IPC: 2.512 cumulative IPC: 2.054 (Simulation time: 00 hr 36 min 37 sec)
Heartbeat CPU 0 instructions: 500000002 cycles: 230529244 heartbeat IPC: 2.628 cumulative IPC: 2.064 (Simulation time: 00 hr 37 min 17 sec)
Heartbeat CPU 0 instructions: 510000000 cycles: 234181770 heartbeat IPC: 2.738 cumulative IPC: 2.075 (Simulation time: 00 hr 37 min 56 sec)
Heartbeat CPU 0 instructions: 520000000 cycles: 238014208 heartbeat IPC: 2.609 cumulative IPC: 2.084 (Simulation time: 00 hr 38 min 36 sec)
Heartbeat CPU 0 instructions: 530000001 cycles: 245564196 heartbeat IPC: 1.325 cumulative IPC: 2.06 (Simulation time: 00 hr 39 min 37 sec)
Heartbeat CPU 0 instructions: 540000000 cycles: 253074888 heartbeat IPC: 1.331 cumulative IPC: 2.037 (Simulation time: 00 hr 40 min 37 sec)
Heartbeat CPU 0 instructions: 550000004 cycles: 260643480 heartbeat IPC: 1.321 cumulative IPC: 2.015 (Simulation time: 00 hr 41 min 39 sec)
Heartbeat CPU 0 instructions: 560000004 cycles: 264461145 heartbeat IPC: 2.619 cumulative IPC: 2.024 (Simulation time: 00 hr 42 min 17 sec)
Heartbeat CPU 0 instructions: 570000001 cycles: 267539598 heartbeat IPC: 3.248 cumulative IPC: 2.039 (Simulation time: 00 hr 42 min 53 sec)
Heartbeat CPU 0 instructions: 580000003 cycles: 270983872 heartbeat IPC: 2.903 cumulative IPC: 2.05 (Simulation time: 00 hr 43 min 29 sec)
Heartbeat CPU 0 instructions: 590000002 cycles: 274516249 heartbeat IPC: 2.831 cumulative IPC: 2.061 (Simulation time: 00 hr 44 min 06 sec)
Heartbeat CPU 0 instructions: 600000003 cycles: 277529206 heartbeat IPC: 3.319 cumulative IPC: 2.075 (Simulation time: 00 hr 44 min 41 sec)
Heartbeat CPU 0 instructions: 610000001 cycles: 280972509 heartbeat IPC: 2.904 cumulative IPC: 2.086 (Simulation time: 00 hr 45 min 16 sec)
Heartbeat CPU 0 instructions: 620000000 cycles: 284936314 heartbeat IPC: 2.523 cumulative IPC: 2.092 (Simulation time: 00 hr 45 min 52 sec)
Heartbeat CPU 0 instructions: 630000002 cycles: 288265974 heartbeat IPC: 3.003 cumulative IPC: 2.103 (Simulation time: 00 hr 46 min 25 sec)
Heartbeat CPU 0 instructions: 640000004 cycles: 292230684 heartbeat IPC: 2.522 cumulative IPC: 2.109 (Simulation time: 00 hr 47 min 00 sec)
Heartbeat CPU 0 instructions: 650000001 cycles: 296031822 heartbeat IPC: 2.631 cumulative IPC: 2.116 (Simulation time: 00 hr 47 min 34 sec)
Simulation finished CPU 0 instructions: 600000001 cycles: 283531761 cumulative IPC: 2.116 (Simulation time: 00 hr 47 min 34 sec)
Simulation complete CPU 0 instructions: 600000001 cycles: 283531761 cumulative IPC: 2.116 (Simulation time: 00 hr 47 min 34 sec)

ChampSim completed all CPUs

=== Simulation ===
CPU 0 runs traces/400.perlbench-50B.champsimtrace.xz
Region of Interest Statistics

CPU 0 cumulative IPC: 2.116 instructions: 600000001 cycles: 283531761
CPU 0 Branch Prediction Accuracy: 96.2% MPKI: 7.839 Average ROB Occupancy at Mispredict: 43.1
Branch type MPKI
BRANCH_DIRECT_JUMP: 0.0176
BRANCH_INDIRECT: 0.38
BRANCH_CONDITIONAL: 6.99
BRANCH_DIRECT_CALL: 0.0067
BRANCH_INDIRECT_CALL: 0.431
BRANCH_RETURN: 0.0161

LLC TOTAL        ACCESS:    1353997 HIT:    1138818 MISS:     215179
LLC LOAD         ACCESS:     578553 HIT:     482846 MISS:      95707
LLC RFO          ACCESS:      47470 HIT:      37169 MISS:      10301
LLC PREFETCH     ACCESS:     578553 HIT:     479321 MISS:      99232
LLC WRITE        ACCESS:     127308 HIT:     126800 MISS:        508
LLC TRANSLATION  ACCESS:      22113 HIT:      12682 MISS:       9431
LLC PREFETCH REQUESTED:     578553 ISSUED:     578553 USEFUL:      36714 USELESS:       7585
LLC AVERAGE MISS LATENCY: 455.4 cycles
cpu0_DTLB TOTAL        ACCESS:  146518478 HIT:  145213475 MISS:    1305003
cpu0_DTLB LOAD         ACCESS:  146518478 HIT:  145213475 MISS:    1305003
cpu0_DTLB RFO          ACCESS:          0 HIT:          0 MISS:          0
cpu0_DTLB PREFETCH     ACCESS:          0 HIT:          0 MISS:          0
cpu0_DTLB WRITE        ACCESS:          0 HIT:          0 MISS:          0
cpu0_DTLB TRANSLATION  ACCESS:          0 HIT:          0 MISS:          0
cpu0_DTLB PREFETCH REQUESTED:          0 ISSUED:          0 USEFUL:          0 USELESS:          0
cpu0_DTLB AVERAGE MISS LATENCY: 10.15 cycles
cpu0_ITLB TOTAL        ACCESS:    8984122 HIT:    8799626 MISS:     184496
cpu0_ITLB LOAD         ACCESS:    8984122 HIT:    8799626 MISS:     184496
cpu0_ITLB RFO          ACCESS:          0 HIT:          0 MISS:          0
cpu0_ITLB PREFETCH     ACCESS:          0 HIT:          0 MISS:          0
cpu0_ITLB WRITE        ACCESS:          0 HIT:          0 MISS:          0
cpu0_ITLB TRANSLATION  ACCESS:          0 HIT:          0 MISS:          0
cpu0_ITLB PREFETCH REQUESTED:          0 ISSUED:          0 USEFUL:          0 USELESS:          0
cpu0_ITLB AVERAGE MISS LATENCY: 3.06 cycles
cpu0_L1D TOTAL        ACCESS:  193317310 HIT:  189683681 MISS:    3633629
cpu0_L1D LOAD         ACCESS:  107471042 HIT:  104475767 MISS:    2995275
cpu0_L1D RFO          ACCESS:          0 HIT:          0 MISS:          0
cpu0_L1D PREFETCH     ACCESS:          0 HIT:          0 MISS:          0
cpu0_L1D WRITE        ACCESS:   85817743 HIT:   85206488 MISS:     611255
cpu0_L1D TRANSLATION  ACCESS:      28525 HIT:       1426 MISS:      27099
cpu0_L1D PREFETCH REQUESTED:          0 ISSUED:          0 USEFUL:          0 USELESS:          0
cpu0_L1D AVERAGE MISS LATENCY: 22.56 cycles
cpu0_L1I TOTAL        ACCESS:   10419068 HIT:    8657415 MISS:    1761653
cpu0_L1I LOAD         ACCESS:   10419068 HIT:    8657415 MISS:    1761653
cpu0_L1I RFO          ACCESS:          0 HIT:          0 MISS:          0
cpu0_L1I PREFETCH     ACCESS:          0 HIT:          0 MISS:          0
cpu0_L1I WRITE        ACCESS:          0 HIT:          0 MISS:          0
cpu0_L1I TRANSLATION  ACCESS:          0 HIT:          0 MISS:          0
cpu0_L1I PREFETCH REQUESTED:          0 ISSUED:          0 USEFUL:          0 USELESS:          0
cpu0_L1I AVERAGE MISS LATENCY: 9.145 cycles
cpu0_L2C TOTAL        ACCESS:    3834735 HIT:    3183517 MISS:     651218
cpu0_L2C LOAD         ACCESS:    3105033 HIT:    2526480 MISS:     578553
cpu0_L2C RFO          ACCESS:     191518 HIT:     144047 MISS:      47471
cpu0_L2C PREFETCH     ACCESS:          0 HIT:          0 MISS:          0
cpu0_L2C WRITE        ACCESS:     511149 HIT:     508068 MISS:       3081
cpu0_L2C TRANSLATION  ACCESS:      27035 HIT:       4922 MISS:      22113
cpu0_L2C PREFETCH REQUESTED:          0 ISSUED:          0 USEFUL:          0 USELESS:          0
cpu0_L2C AVERAGE MISS LATENCY: 108.3 cycles
cpu0_STLB TOTAL        ACCESS:    1008297 HIT:     981602 MISS:      26695
cpu0_STLB LOAD         ACCESS:    1008297 HIT:     981602 MISS:      26695
cpu0_STLB RFO          ACCESS:          0 HIT:          0 MISS:          0
cpu0_STLB PREFETCH     ACCESS:          0 HIT:          0 MISS:          0
cpu0_STLB WRITE        ACCESS:          0 HIT:          0 MISS:          0
cpu0_STLB TRANSLATION  ACCESS:          0 HIT:          0 MISS:          0
cpu0_STLB PREFETCH REQUESTED:          0 ISSUED:          0 USEFUL:          0 USELESS:          0
cpu0_STLB AVERAGE MISS LATENCY: 270.9 cycles

DRAM Statistics

Channel 0 RQ ROW_BUFFER_HIT:      53173
  ROW_BUFFER_MISS:     130261
 AVG DBUS CONGESTED CYCLE: 3.811
WQ ROW_BUFFER_HIT: Channel 0 
  ROW_BUFFER_MISS:       2929
  FULL:       4618
