WARNING: physical memory size is smaller than virtual memory size.

*** ChampSim Multicore Out-of-Order Simulator ***
Warmup Instructions: 50000000
Simulation Instructions: 600000000
Number of CPUs: 1
Page size: 4096

Off-chip DRAM Size: 4 GiB Channels: 1 Width: 64-bit Data Race: 3200 MT/s
Heartbeat CPU 0 instructions: 10000000 cycles: 2500061 heartbeat IPC: 4 cumulative IPC: 4 (Simulation time: 00 hr 00 min 34 sec)
Heartbeat CPU 0 instructions: 20000000 cycles: 5000061 heartbeat IPC: 4 cumulative IPC: 4 (Simulation time: 00 hr 01 min 10 sec)
Heartbeat CPU 0 instructions: 30000000 cycles: 7500061 heartbeat IPC: 4 cumulative IPC: 4 (Simulation time: 00 hr 01 min 43 sec)
Heartbeat CPU 0 instructions: 40000000 cycles: 10000061 heartbeat IPC: 4 cumulative IPC: 4 (Simulation time: 00 hr 02 min 16 sec)
Heartbeat CPU 0 instructions: 50000000 cycles: 12500061 heartbeat IPC: 4 cumulative IPC: 4 (Simulation time: 00 hr 02 min 48 sec)
Warmup finished CPU 0 instructions: 50000000 cycles: 12500062 cumulative IPC: 4 (Simulation time: 00 hr 02 min 48 sec)
Warmup complete CPU 0 instructions: 50000000 cycles: 12500062 cumulative IPC: 4 (Simulation time: 00 hr 02 min 48 sec)
Heartbeat CPU 0 instructions: 60000002 cycles: 16444688 heartbeat IPC: 2.535 cumulative IPC: 2.535 (Simulation time: 00 hr 03 min 32 sec)
Heartbeat CPU 0 instructions: 70000003 cycles: 20760893 heartbeat IPC: 2.317 cumulative IPC: 2.421 (Simulation time: 00 hr 04 min 16 sec)
Heartbeat CPU 0 instructions: 80000003 cycles: 25229157 heartbeat IPC: 2.238 cumulative IPC: 2.357 (Simulation time: 00 hr 04 min 58 sec)
Heartbeat CPU 0 instructions: 90000000 cycles: 28920814 heartbeat IPC: 2.709 cumulative IPC: 2.436 (Simulation time: 00 hr 05 min 38 sec)
Heartbeat CPU 0 instructions: 100000003 cycles: 32818788 heartbeat IPC: 2.565 cumulative IPC: 2.461 (Simulation time: 00 hr 06 min 18 sec)
Heartbeat CPU 0 instructions: 110000002 cycles: 36920325 heartbeat IPC: 2.438 cumulative IPC: 2.457 (Simulation time: 00 hr 06 min 58 sec)
Heartbeat CPU 0 instructions: 120000001 cycles: 40635683 heartbeat IPC: 2.692 cumulative IPC: 2.488 (Simulation time: 00 hr 07 min 37 sec)
Heartbeat CPU 0 instructions: 130000003 cycles: 44404658 heartbeat IPC: 2.653 cumulative IPC: 2.507 (Simulation time: 00 hr 08 min 16 sec)
Heartbeat CPU 0 instructions: 140000002 cycles: 48538024 heartbeat IPC: 2.419 cumulative IPC: 2.497 (Simulation time: 00 hr 08 min 57 sec)
Heartbeat CPU 0 instructions: 150000001 cycles: 52589949 heartbeat IPC: 2.468 cumulative IPC: 2.494 (Simulation time: 00 hr 09 min 36 sec)
Heartbeat CPU 0 instructions: 160000000 cycles: 56247531 heartbeat IPC: 2.734 cumulative IPC: 2.514 (Simulation time: 00 hr 10 min 14 sec)
Heartbeat CPU 0 instructions: 170000001 cycles: 60421737 heartbeat IPC: 2.396 cumulative IPC: 2.504 (Simulation time: 00 hr 10 min 55 sec)
Heartbeat CPU 0 instructions: 180000001 cycles: 63882371 heartbeat IPC: 2.89 cumulative IPC: 2.53 (Simulation time: 00 hr 11 min 33 sec)
Heartbeat CPU 0 instructions: 190000002 cycles: 67465761 heartbeat IPC: 2.791 cumulative IPC: 2.547 (Simulation time: 00 hr 12 min 12 sec)
Heartbeat CPU 0 instructions: 200000002 cycles: 71249161 heartbeat IPC: 2.643 cumulative IPC: 2.553 (Simulation time: 00 hr 12 min 51 sec)
Heartbeat CPU 0 instructions: 210000000 cycles: 74888079 heartbeat IPC: 2.748 cumulative IPC: 2.565 (Simulation time: 00 hr 13 min 29 sec)
Heartbeat CPU 0 instructions: 220000001 cycles: 78754029 heartbeat IPC: 2.587 cumulative IPC: 2.566 (Simulation time: 00 hr 14 min 08 sec)
Heartbeat CPU 0 instructions: 230000002 cycles: 82594747 heartbeat IPC: 2.604 cumulative IPC: 2.568 (Simulation time: 00 hr 14 min 47 sec)
Heartbeat CPU 0 instructions: 240000001 cycles: 86801493 heartbeat IPC: 2.377 cumulative IPC: 2.557 (Simulation time: 00 hr 15 min 28 sec)
Heartbeat CPU 0 instructions: 250000003 cycles: 91366485 heartbeat IPC: 2.191 cumulative IPC: 2.536 (Simulation time: 00 hr 16 min 10 sec)
Heartbeat CPU 0 instructions: 260000000 cycles: 95158973 heartbeat IPC: 2.637 cumulative IPC: 2.541 (Simulation time: 00 hr 16 min 49 sec)
Heartbeat CPU 0 instructions: 270000003 cycles: 102228918 heartbeat IPC: 1.414 cumulative IPC: 2.452 (Simulation time: 00 hr 17 min 46 sec)
Heartbeat CPU 0 instructions: 280000000 cycles: 112630929 heartbeat IPC: 0.9614 cumulative IPC: 2.297 (Simulation time: 00 hr 18 min 59 sec)
Heartbeat CPU 0 instructions: 290000000 cycles: 121811002 heartbeat IPC: 1.089 cumulative IPC: 2.196 (Simulation time: 00 hr 20 min 07 sec)
Heartbeat CPU 0 instructions: 300000003 cycles: 129010977 heartbeat IPC: 1.389 cumulative IPC: 2.146 (Simulation time: 00 hr 21 min 06 sec)
Heartbeat CPU 0 instructions: 310000004 cycles: 138984579 heartbeat IPC: 1.003 cumulative IPC: 2.056 (Simulation time: 00 hr 22 min 19 sec)
Heartbeat CPU 0 instructions: 320000004 cycles: 143894517 heartbeat IPC: 2.037 cumulative IPC: 2.055 (Simulation time: 00 hr 23 min 06 sec)
Heartbeat CPU 0 instructions: 330000000 cycles: 147885554 heartbeat IPC: 2.506 cumulative IPC: 2.068 (Simulation time: 00 hr 23 min 47 sec)
Heartbeat CPU 0 instructions: 340000001 cycles: 151681175 heartbeat IPC: 2.635 cumulative IPC: 2.084 (Simulation time: 00 hr 24 min 27 sec)
Heartbeat CPU 0 instructions: 350000004 cycles: 155590445 heartbeat IPC: 2.558 cumulative IPC: 2.097 (Simulation time: 00 hr 25 min 08 sec)
Heartbeat CPU 0 instructions: 360000003 cycles: 159246483 heartbeat IPC: 2.735 cumulative IPC: 2.112 (Simulation time: 00 hr 25 min 47 sec)
Heartbeat CPU 0 instructions: 370000001 cycles: 162889295 heartbeat IPC: 2.745 cumulative IPC: 2.128 (Simulation time: 00 hr 26 min 27 sec)
Heartbeat CPU 0 instructions: 380000004 cycles: 166406481 heartbeat IPC: 2.843 cumulative IPC: 2.144 (Simulation time: 00 hr 27 min 05 sec)
Heartbeat CPU 0 instructions: 390000002 cycles: 169964003 heartbeat IPC: 2.811 cumulative IPC: 2.159 (Simulation time: 00 hr 27 min 44 sec)
Heartbeat CPU 0 instructions: 400000000 cycles: 173804449 heartbeat IPC: 2.604 cumulative IPC: 2.17 (Simulation time: 00 hr 28 min 24 sec)
Heartbeat CPU 0 instructions: 410000000 cycles: 179320498 heartbeat IPC: 1.813 cumulative IPC: 2.158 (Simulation time: 00 hr 29 min 12 sec)
Heartbeat CPU 0 instructions: 420000003 cycles: 186309520 heartbeat IPC: 1.431 cumulative IPC: 2.129 (Simulation time: 00 hr 30 min 10 sec)
Heartbeat CPU 0 instructions: 430000000 cycles: 192791470 heartbeat IPC: 1.543 cumulative IPC: 2.108 (Simulation time: 00 hr 31 min 07 sec)
Heartbeat CPU 0 instructions: 440000004 cycles: 198817398 heartbeat IPC: 1.659 cumulative IPC: 2.093 (Simulation time: 00 hr 32 min 02 sec)
Heartbeat CPU 0 instructions: 450000001 cycles: 205085371 heartbeat IPC: 1.595 cumulative IPC: 2.077 (Simulation time: 00 hr 32 min 56 sec)
Heartbeat CPU 0 instructions: 460000002 cycles: 212654753 heartbeat IPC: 1.321 cumulative IPC: 2.048 (Simulation time: 00 hr 33 min 57 sec)
Heartbeat CPU 0 instructions: 470000003 cycles: 218689753 heartbeat IPC: 1.657 cumulative IPC: 2.037 (Simulation time: 00 hr 34 min 50 sec)
Heartbeat CPU 0 instructions: 480000003 cycles: 222414240 heartbeat IPC: 2.685 cumulative IPC: 2.048 (Simulation time: 00 hr 35 min 30 sec)
Heartbeat CPU 0 instructions: 490000001 cycles: 226268210 heartbeat IPC: 2.595 cumulative IPC: 2.058 (Simulation time: 00 hr 36 min 10 sec)
Heartbeat CPU 0 instructions: 500000002 cycles: 229965852 heartbeat IPC: 2.704 cumulative IPC: 2.069 (Simulation time: 00 hr 36 min 50 sec)
Heartbeat CPU 0 instructions: 510000000 cycles: 233516291 heartbeat IPC: 2.817 cumulative IPC: 2.081 (Simulation time: 00 hr 37 min 29 sec)
Heartbeat CPU 0 instructions: 520000000 cycles: 237227526 heartbeat IPC: 2.695 cumulative IPC: 2.091 (Simulation time: 00 hr 38 min 09 sec)
Heartbeat CPU 0 instructions: 530000001 cycles: 244198754 heartbeat IPC: 1.434 cumulative IPC: 2.072 (Simulation time: 00 hr 39 min 05 sec)
Heartbeat CPU 0 instructions: 540000000 cycles: 251136676 heartbeat IPC: 1.441 cumulative IPC: 2.053 (Simulation time: 00 hr 40 min 03 sec)
Heartbeat CPU 0 instructions: 550000004 cycles: 257990774 heartbeat IPC: 1.459 cumulative IPC: 2.037 (Simulation time: 00 hr 40 min 58 sec)
Heartbeat CPU 0 instructions: 560000004 cycles: 261753335 heartbeat IPC: 2.658 cumulative IPC: 2.046 (Simulation time: 00 hr 41 min 36 sec)
Heartbeat CPU 0 instructions: 570000001 cycles: 264825005 heartbeat IPC: 3.256 cumulative IPC: 2.061 (Simulation time: 00 hr 42 min 12 sec)
Heartbeat CPU 0 instructions: 580000003 cycles: 268251768 heartbeat IPC: 2.918 cumulative IPC: 2.072 (Simulation time: 00 hr 42 min 48 sec)
Heartbeat CPU 0 instructions: 590000002 cycles: 271766413 heartbeat IPC: 2.845 cumulative IPC: 2.083 (Simulation time: 00 hr 43 min 23 sec)
Heartbeat CPU 0 instructions: 600000003 cycles: 274775572 heartbeat IPC: 3.323 cumulative IPC: 2.097 (Simulation time: 00 hr 43 min 54 sec)
Heartbeat CPU 0 instructions: 610000001 cycles: 278206811 heartbeat IPC: 2.914 cumulative IPC: 2.108 (Simulation time: 00 hr 44 min 28 sec)
Heartbeat CPU 0 instructions: 620000000 cycles: 282165622 heartbeat IPC: 2.526 cumulative IPC: 2.114 (Simulation time: 00 hr 45 min 04 sec)
Heartbeat CPU 0 instructions: 630000002 cycles: 285490167 heartbeat IPC: 3.008 cumulative IPC: 2.125 (Simulation time: 00 hr 45 min 32 sec)
Heartbeat CPU 0 instructions: 640000004 cycles: 289449512 heartbeat IPC: 2.526 cumulative IPC: 2.13 (Simulation time: 00 hr 45 min 58 sec)
Heartbeat CPU 0 instructions: 650000001 cycles: 293250039 heartbeat IPC: 2.631 cumulative IPC: 2.137 (Simulation time: 00 hr 46 min 23 sec)
Simulation finished CPU 0 instructions: 600000001 cycles: 280749978 cumulative IPC: 2.137 (Simulation time: 00 hr 46 min 23 sec)
Simulation complete CPU 0 instructions: 600000001 cycles: 280749978 cumulative IPC: 2.137 (Simulation time: 00 hr 46 min 23 sec)

ChampSim completed all CPUs

=== Simulation ===
CPU 0 runs traces/400.perlbench-50B.champsimtrace.xz
Region of Interest Statistics

CPU 0 cumulative IPC: 2.137 instructions: 600000001 cycles: 280749978
CPU 0 Branch Prediction Accuracy: 96.2% MPKI: 7.839 Average ROB Occupancy at Mispredict: 43.09
Branch type MPKI
BRANCH_DIRECT_JUMP: 0.0176
BRANCH_INDIRECT: 0.38
BRANCH_CONDITIONAL: 6.99
BRANCH_DIRECT_CALL: 0.0067
BRANCH_INDIRECT_CALL: 0.431
BRANCH_RETURN: 0.0161

LLC TOTAL        ACCESS:     837880 HIT:     714014 MISS:     123866
LLC LOAD         ACCESS:     576511 HIT:     482665 MISS:      93846
LLC RFO          ACCESS:      47516 HIT:      37984 MISS:       9532
LLC PREFETCH     ACCESS:      64379 HIT:      53131 MISS:      11248
LLC WRITE        ACCESS:     127382 HIT:     127274 MISS:        108
LLC TRANSLATION  ACCESS:      22092 HIT:      12960 MISS:       9132
LLC PREFETCH REQUESTED:      64379 ISSUED:      64379 USEFUL:       7031 USELESS:        288
LLC AVERAGE MISS LATENCY: 472.6 cycles
cpu0_DTLB TOTAL        ACCESS:  146519047 HIT:  145214505 MISS:    1304542
cpu0_DTLB LOAD         ACCESS:  146519047 HIT:  145214505 MISS:    1304542
cpu0_DTLB RFO          ACCESS:          0 HIT:          0 MISS:          0
cpu0_DTLB PREFETCH     ACCESS:          0 HIT:          0 MISS:          0
cpu0_DTLB WRITE        ACCESS:          0 HIT:          0 MISS:          0
cpu0_DTLB TRANSLATION  ACCESS:          0 HIT:          0 MISS:          0
cpu0_DTLB PREFETCH REQUESTED:          0 ISSUED:          0 USEFUL:          0 USELESS:          0
cpu0_DTLB AVERAGE MISS LATENCY: 9.801 cycles
cpu0_ITLB TOTAL        ACCESS:    8984779 HIT:    8800285 MISS:     184494
cpu0_ITLB LOAD         ACCESS:    8984779 HIT:    8800285 MISS:     184494
cpu0_ITLB RFO          ACCESS:          0 HIT:          0 MISS:          0
cpu0_ITLB PREFETCH     ACCESS:          0 HIT:          0 MISS:          0
cpu0_ITLB WRITE        ACCESS:          0 HIT:          0 MISS:          0
cpu0_ITLB TRANSLATION  ACCESS:          0 HIT:          0 MISS:          0
cpu0_ITLB PREFETCH REQUESTED:          0 ISSUED:          0 USEFUL:          0 USELESS:          0
cpu0_ITLB AVERAGE MISS LATENCY: 2.923 cycles
cpu0_L1D TOTAL        ACCESS:  193318758 HIT:  189691919 MISS:    3626839
cpu0_L1D LOAD         ACCESS:  107472840 HIT:  104481472 MISS:    2991368
cpu0_L1D RFO          ACCESS:          0 HIT:          0 MISS:          0
cpu0_L1D PREFETCH     ACCESS:          0 HIT:          0 MISS:          0
cpu0_L1D WRITE        ACCESS:   85817394 HIT:   85209025 MISS:     608369
cpu0_L1D TRANSLATION  ACCESS:      28524 HIT:       1422 MISS:      27102
cpu0_L1D PREFETCH REQUESTED:          0 ISSUED:          0 USEFUL:          0 USELESS:          0
cpu0_L1D AVERAGE MISS LATENCY: 21.28 cycles
cpu0_L1I TOTAL        ACCESS:   10419256 HIT:    8657415 MISS:    1761841
cpu0_L1I LOAD         ACCESS:   10419256 HIT:    8657415 MISS:    1761841
cpu0_L1I RFO          ACCESS:          0 HIT:          0 MISS:          0
cpu0_L1I PREFETCH     ACCESS:          0 HIT:          0 MISS:          0
cpu0_L1I WRITE        ACCESS:          0 HIT:          0 MISS:          0
cpu0_L1I TRANSLATION  ACCESS:          0 HIT:          0 MISS:          0
cpu0_L1I PREFETCH REQUESTED:          0 ISSUED:          0 USEFUL:          0 USELESS:          0
cpu0_L1I AVERAGE MISS LATENCY: 9.396 cycles
cpu0_L2C TOTAL        ACCESS:    3834933 HIT:    3185649 MISS:     649284
cpu0_L2C LOAD         ACCESS:    3105081 HIT:    2528570 MISS:     576511
cpu0_L2C RFO          ACCESS:     191511 HIT:     143994 MISS:      47517
cpu0_L2C PREFETCH     ACCESS:          0 HIT:          0 MISS:          0
cpu0_L2C WRITE        ACCESS:     511305 HIT:     508141 MISS:       3164
cpu0_L2C TRANSLATION  ACCESS:      27036 HIT:       4944 MISS:      22092
cpu0_L2C PREFETCH REQUESTED:          0 ISSUED:          0 USEFUL:          0 USELESS:          0
cpu0_L2C AVERAGE MISS LATENCY: 101.8 cycles
cpu0_STLB TOTAL        ACCESS:    1008139 HIT:     981445 MISS:      26694
cpu0_STLB LOAD         ACCESS:    1008139 HIT:     981445 MISS:      26694
cpu0_STLB RFO          ACCESS:          0 HIT:          0 MISS:          0
cpu0_STLB PREFETCH     ACCESS:          0 HIT:          0 MISS:          0
cpu0_STLB WRITE        ACCESS:          0 HIT:          0 MISS:          0
cpu0_STLB TRANSLATION  ACCESS:          0 HIT:          0 MISS:          0
cpu0_STLB PREFETCH REQUESTED:          0 ISSUED:          0 USEFUL:          0 USELESS:          0
cpu0_STLB AVERAGE MISS LATENCY: 252.3 cycles

DRAM Statistics

Channel 0 RQ ROW_BUFFER_HIT:      37270
  ROW_BUFFER_MISS:      84446
 AVG DBUS CONGESTED CYCLE: 3.734
WQ ROW_BUFFER_HIT: Channel 0 
  ROW_BUFFER_MISS:        914
  FULL:       1646
