WARNING: physical memory size is smaller than virtual memory size.

*** ChampSim Multicore Out-of-Order Simulator ***
Warmup Instructions: 50000000
Simulation Instructions: 600000000
Number of CPUs: 1
Page size: 4096

CPU 0 Tage branch predictor
Off-chip DRAM Size: 4 GiB Channels: 1 Width: 64-bit Data Race: 3200 MT/s
Heartbeat CPU 0 instructions: 10000001 cycles: 2500318 heartbeat IPC: 3.999 cumulative IPC: 3.999 (Simulation time: 00 hr 00 min 44 sec)
Heartbeat CPU 0 instructions: 20000002 cycles: 5037108 heartbeat IPC: 3.942 cumulative IPC: 3.971 (Simulation time: 00 hr 01 min 28 sec)
Heartbeat CPU 0 instructions: 30000002 cycles: 7537108 heartbeat IPC: 4 cumulative IPC: 3.98 (Simulation time: 00 hr 02 min 07 sec)
Heartbeat CPU 0 instructions: 40000002 cycles: 10037108 heartbeat IPC: 4 cumulative IPC: 3.985 (Simulation time: 00 hr 02 min 46 sec)
Heartbeat CPU 0 instructions: 50000002 cycles: 12537108 heartbeat IPC: 4 cumulative IPC: 3.988 (Simulation time: 00 hr 03 min 24 sec)
Warmup finished CPU 0 instructions: 50000002 cycles: 12537109 cumulative IPC: 3.988 (Simulation time: 00 hr 03 min 24 sec)
Warmup complete CPU 0 instructions: 50000002 cycles: 12537109 cumulative IPC: 3.988 (Simulation time: 00 hr 03 min 24 sec)
Heartbeat CPU 0 instructions: 60000001 cycles: 15499494 heartbeat IPC: 3.376 cumulative IPC: 3.376 (Simulation time: 00 hr 04 min 09 sec)
Heartbeat CPU 0 instructions: 70000004 cycles: 18556956 heartbeat IPC: 3.271 cumulative IPC: 3.322 (Simulation time: 00 hr 04 min 52 sec)
Heartbeat CPU 0 instructions: 80000001 cycles: 21591359 heartbeat IPC: 3.296 cumulative IPC: 3.313 (Simulation time: 00 hr 05 min 35 sec)
Heartbeat CPU 0 instructions: 90000001 cycles: 24527091 heartbeat IPC: 3.406 cumulative IPC: 3.336 (Simulation time: 00 hr 06 min 18 sec)
Heartbeat CPU 0 instructions: 100000000 cycles: 27428991 heartbeat IPC: 3.446 cumulative IPC: 3.358 (Simulation time: 00 hr 07 min 00 sec)
Heartbeat CPU 0 instructions: 110000000 cycles: 30364664 heartbeat IPC: 3.406 cumulative IPC: 3.366 (Simulation time: 00 hr 07 min 42 sec)
Heartbeat CPU 0 instructions: 120000001 cycles: 33325419 heartbeat IPC: 3.378 cumulative IPC: 3.367 (Simulation time: 00 hr 08 min 24 sec)
Heartbeat CPU 0 instructions: 130000001 cycles: 36166705 heartbeat IPC: 3.52 cumulative IPC: 3.386 (Simulation time: 00 hr 09 min 06 sec)
Heartbeat CPU 0 instructions: 140000001 cycles: 39188843 heartbeat IPC: 3.309 cumulative IPC: 3.377 (Simulation time: 00 hr 09 min 48 sec)
Heartbeat CPU 0 instructions: 150000001 cycles: 42180478 heartbeat IPC: 3.343 cumulative IPC: 3.373 (Simulation time: 00 hr 10 min 31 sec)
Heartbeat CPU 0 instructions: 160000004 cycles: 45166681 heartbeat IPC: 3.349 cumulative IPC: 3.371 (Simulation time: 00 hr 11 min 13 sec)
Heartbeat CPU 0 instructions: 170000000 cycles: 50566203 heartbeat IPC: 1.852 cumulative IPC: 3.155 (Simulation time: 00 hr 12 min 09 sec)
Heartbeat CPU 0 instructions: 180000004 cycles: 55255291 heartbeat IPC: 2.133 cumulative IPC: 3.043 (Simulation time: 00 hr 13 min 02 sec)
Heartbeat CPU 0 instructions: 190000001 cycles: 59552974 heartbeat IPC: 2.327 cumulative IPC: 2.978 (Simulation time: 00 hr 13 min 53 sec)
Heartbeat CPU 0 instructions: 200000004 cycles: 62307205 heartbeat IPC: 3.631 cumulative IPC: 3.014 (Simulation time: 00 hr 14 min 34 sec)
Heartbeat CPU 0 instructions: 210000001 cycles: 65101046 heartbeat IPC: 3.579 cumulative IPC: 3.044 (Simulation time: 00 hr 15 min 16 sec)
Heartbeat CPU 0 instructions: 220000000 cycles: 67894587 heartbeat IPC: 3.58 cumulative IPC: 3.071 (Simulation time: 00 hr 15 min 57 sec)
Heartbeat CPU 0 instructions: 230000002 cycles: 70587562 heartbeat IPC: 3.713 cumulative IPC: 3.101 (Simulation time: 00 hr 16 min 38 sec)
Heartbeat CPU 0 instructions: 240000003 cycles: 73412350 heartbeat IPC: 3.54 cumulative IPC: 3.121 (Simulation time: 00 hr 17 min 21 sec)
Heartbeat CPU 0 instructions: 250000000 cycles: 76191386 heartbeat IPC: 3.598 cumulative IPC: 3.142 (Simulation time: 00 hr 18 min 02 sec)
Heartbeat CPU 0 instructions: 260000002 cycles: 78909785 heartbeat IPC: 3.679 cumulative IPC: 3.164 (Simulation time: 00 hr 18 min 43 sec)
Heartbeat CPU 0 instructions: 270000002 cycles: 81650360 heartbeat IPC: 3.649 cumulative IPC: 3.183 (Simulation time: 00 hr 19 min 23 sec)
Heartbeat CPU 0 instructions: 280000002 cycles: 84351761 heartbeat IPC: 3.702 cumulative IPC: 3.203 (Simulation time: 00 hr 20 min 04 sec)
Heartbeat CPU 0 instructions: 290000002 cycles: 87158129 heartbeat IPC: 3.563 cumulative IPC: 3.216 (Simulation time: 00 hr 20 min 45 sec)
Heartbeat CPU 0 instructions: 300000003 cycles: 89820667 heartbeat IPC: 3.756 cumulative IPC: 3.235 (Simulation time: 00 hr 21 min 26 sec)
Heartbeat CPU 0 instructions: 310000001 cycles: 92588566 heartbeat IPC: 3.613 cumulative IPC: 3.248 (Simulation time: 00 hr 22 min 07 sec)
Heartbeat CPU 0 instructions: 320000003 cycles: 95395183 heartbeat IPC: 3.563 cumulative IPC: 3.259 (Simulation time: 00 hr 22 min 48 sec)
Heartbeat CPU 0 instructions: 330000003 cycles: 98100038 heartbeat IPC: 3.697 cumulative IPC: 3.272 (Simulation time: 00 hr 23 min 29 sec)
Heartbeat CPU 0 instructions: 340000000 cycles: 102395285 heartbeat IPC: 2.328 cumulative IPC: 3.227 (Simulation time: 00 hr 24 min 21 sec)
Heartbeat CPU 0 instructions: 350000000 cycles: 107109571 heartbeat IPC: 2.121 cumulative IPC: 3.172 (Simulation time: 00 hr 25 min 15 sec)
Heartbeat CPU 0 instructions: 360000004 cycles: 111573428 heartbeat IPC: 2.24 cumulative IPC: 3.13 (Simulation time: 00 hr 26 min 06 sec)
Heartbeat CPU 0 instructions: 370000000 cycles: 114381609 heartbeat IPC: 3.561 cumulative IPC: 3.142 (Simulation time: 00 hr 26 min 48 sec)
Heartbeat CPU 0 instructions: 380000003 cycles: 117140347 heartbeat IPC: 3.625 cumulative IPC: 3.155 (Simulation time: 00 hr 27 min 28 sec)
Heartbeat CPU 0 instructions: 390000002 cycles: 120006617 heartbeat IPC: 3.489 cumulative IPC: 3.164 (Simulation time: 00 hr 28 min 10 sec)
Heartbeat CPU 0 instructions: 400000004 cycles: 122835306 heartbeat IPC: 3.535 cumulative IPC: 3.173 (Simulation time: 00 hr 28 min 51 sec)
Heartbeat CPU 0 instructions: 410000002 cycles: 125594183 heartbeat IPC: 3.625 cumulative IPC: 3.184 (Simulation time: 00 hr 29 min 32 sec)
Heartbeat CPU 0 instructions: 420000003 cycles: 128433566 heartbeat IPC: 3.522 cumulative IPC: 3.193 (Simulation time: 00 hr 30 min 14 sec)
Heartbeat CPU 0 instructions: 430000001 cycles: 131301381 heartbeat IPC: 3.487 cumulative IPC: 3.2 (Simulation time: 00 hr 30 min 56 sec)
Heartbeat CPU 0 instructions: 440000004 cycles: 134221126 heartbeat IPC: 3.425 cumulative IPC: 3.205 (Simulation time: 00 hr 31 min 38 sec)
Heartbeat CPU 0 instructions: 450000002 cycles: 136953629 heartbeat IPC: 3.66 cumulative IPC: 3.215 (Simulation time: 00 hr 32 min 19 sec)
Heartbeat CPU 0 instructions: 460000000 cycles: 139717816 heartbeat IPC: 3.618 cumulative IPC: 3.224 (Simulation time: 00 hr 33 min 00 sec)
Heartbeat CPU 0 instructions: 470000001 cycles: 142429320 heartbeat IPC: 3.688 cumulative IPC: 3.233 (Simulation time: 00 hr 33 min 41 sec)
Heartbeat CPU 0 instructions: 480000003 cycles: 145305500 heartbeat IPC: 3.477 cumulative IPC: 3.239 (Simulation time: 00 hr 34 min 22 sec)
Heartbeat CPU 0 instructions: 490000004 cycles: 148014696 heartbeat IPC: 3.691 cumulative IPC: 3.248 (Simulation time: 00 hr 35 min 02 sec)
Heartbeat CPU 0 instructions: 500000004 cycles: 150886480 heartbeat IPC: 3.482 cumulative IPC: 3.253 (Simulation time: 00 hr 35 min 43 sec)
Heartbeat CPU 0 instructions: 510000003 cycles: 153721384 heartbeat IPC: 3.527 cumulative IPC: 3.258 (Simulation time: 00 hr 36 min 25 sec)
Heartbeat CPU 0 instructions: 520000001 cycles: 156408485 heartbeat IPC: 3.721 cumulative IPC: 3.267 (Simulation time: 00 hr 37 min 07 sec)
Heartbeat CPU 0 instructions: 530000001 cycles: 159249211 heartbeat IPC: 3.52 cumulative IPC: 3.272 (Simulation time: 00 hr 37 min 48 sec)
Heartbeat CPU 0 instructions: 540000000 cycles: 162043159 heartbeat IPC: 3.579 cumulative IPC: 3.277 (Simulation time: 00 hr 38 min 28 sec)
Heartbeat CPU 0 instructions: 550000001 cycles: 164886003 heartbeat IPC: 3.518 cumulative IPC: 3.282 (Simulation time: 00 hr 39 min 10 sec)
Heartbeat CPU 0 instructions: 560000000 cycles: 167721794 heartbeat IPC: 3.526 cumulative IPC: 3.286 (Simulation time: 00 hr 39 min 50 sec)
Heartbeat CPU 0 instructions: 570000004 cycles: 171289696 heartbeat IPC: 2.803 cumulative IPC: 3.276 (Simulation time: 00 hr 40 min 34 sec)
Heartbeat CPU 0 instructions: 580000003 cycles: 175861737 heartbeat IPC: 2.187 cumulative IPC: 3.245 (Simulation time: 00 hr 41 min 25 sec)
Heartbeat CPU 0 instructions: 590000002 cycles: 180839884 heartbeat IPC: 2.009 cumulative IPC: 3.209 (Simulation time: 00 hr 42 min 18 sec)
Heartbeat CPU 0 instructions: 600000004 cycles: 183708255 heartbeat IPC: 3.486 cumulative IPC: 3.213 (Simulation time: 00 hr 42 min 55 sec)
Heartbeat CPU 0 instructions: 610000002 cycles: 186531905 heartbeat IPC: 3.542 cumulative IPC: 3.218 (Simulation time: 00 hr 43 min 30 sec)
Heartbeat CPU 0 instructions: 620000001 cycles: 189228300 heartbeat IPC: 3.709 cumulative IPC: 3.226 (Simulation time: 00 hr 44 min 06 sec)
Heartbeat CPU 0 instructions: 630000002 cycles: 192074078 heartbeat IPC: 3.514 cumulative IPC: 3.231 (Simulation time: 00 hr 44 min 42 sec)
Heartbeat CPU 0 instructions: 640000004 cycles: 194969641 heartbeat IPC: 3.454 cumulative IPC: 3.234 (Simulation time: 00 hr 45 min 11 sec)
Heartbeat CPU 0 instructions: 650000000 cycles: 197669310 heartbeat IPC: 3.704 cumulative IPC: 3.241 (Simulation time: 00 hr 45 min 38 sec)
Simulation finished CPU 0 instructions: 600000001 cycles: 185132203 cumulative IPC: 3.241 (Simulation time: 00 hr 45 min 38 sec)
Simulation complete CPU 0 instructions: 600000001 cycles: 185132203 cumulative IPC: 3.241 (Simulation time: 00 hr 45 min 38 sec)

ChampSim completed all CPUs

=== Simulation ===
CPU 0 runs traces/400.perlbench-41B.champsimtrace.xz
Region of Interest Statistics

CPU 0 cumulative IPC: 3.241 instructions: 600000001 cycles: 185132203
CPU 0 Branch Prediction Accuracy: 99.19% MPKI: 1.684 Average ROB Occupancy at Mispredict: 100.3
Branch type MPKI
BRANCH_DIRECT_JUMP: 0.0123
BRANCH_INDIRECT: 0.323
BRANCH_CONDITIONAL: 1.14
BRANCH_DIRECT_CALL: 0.0043
BRANCH_INDIRECT_CALL: 0.2
BRANCH_RETURN: 0.00828

LLC TOTAL        ACCESS:     594337 HIT:     545772 MISS:      48565
LLC LOAD         ACCESS:     403765 HIT:     370724 MISS:      33041
LLC RFO          ACCESS:      32554 HIT:      28416 MISS:       4138
LLC PREFETCH     ACCESS:      53230 HIT:      48524 MISS:       4706
LLC WRITE        ACCESS:      85627 HIT:      85518 MISS:        109
LLC TRANSLATION  ACCESS:      19161 HIT:      12590 MISS:       6571
LLC PREFETCH REQUESTED:      53230 ISSUED:      53230 USEFUL:       2848 USELESS:        150
LLC AVERAGE MISS LATENCY: 566.5 cycles
cpu0_DTLB TOTAL        ACCESS:  129752725 HIT:  129051867 MISS:     700858
cpu0_DTLB LOAD         ACCESS:  129752725 HIT:  129051867 MISS:     700858
cpu0_DTLB RFO          ACCESS:          0 HIT:          0 MISS:          0
cpu0_DTLB PREFETCH     ACCESS:          0 HIT:          0 MISS:          0
cpu0_DTLB WRITE        ACCESS:          0 HIT:          0 MISS:          0
cpu0_DTLB TRANSLATION  ACCESS:          0 HIT:          0 MISS:          0
cpu0_DTLB PREFETCH REQUESTED:          0 ISSUED:          0 USEFUL:          0 USELESS:          0
cpu0_DTLB AVERAGE MISS LATENCY: 10.13 cycles
cpu0_ITLB TOTAL        ACCESS:    4860122 HIT:    4798020 MISS:      62102
cpu0_ITLB LOAD         ACCESS:    4860122 HIT:    4798020 MISS:      62102
cpu0_ITLB RFO          ACCESS:          0 HIT:          0 MISS:          0
cpu0_ITLB PREFETCH     ACCESS:          0 HIT:          0 MISS:          0
cpu0_ITLB WRITE        ACCESS:          0 HIT:          0 MISS:          0
cpu0_ITLB TRANSLATION  ACCESS:          0 HIT:          0 MISS:          0
cpu0_ITLB PREFETCH REQUESTED:          0 ISSUED:          0 USEFUL:          0 USELESS:          0
cpu0_ITLB AVERAGE MISS LATENCY: 3.859 cycles
cpu0_L1D TOTAL        ACCESS:  174383835 HIT:  172657241 MISS:    1726594
cpu0_L1D LOAD         ACCESS:   91360637 HIT:   90014640 MISS:    1345997
cpu0_L1D RFO          ACCESS:          0 HIT:          0 MISS:          0
cpu0_L1D PREFETCH     ACCESS:          0 HIT:          0 MISS:          0
cpu0_L1D WRITE        ACCESS:   82998733 HIT:   82641537 MISS:     357196
cpu0_L1D TRANSLATION  ACCESS:      24465 HIT:       1064 MISS:      23401
cpu0_L1D PREFETCH REQUESTED:          0 ISSUED:          0 USEFUL:          0 USELESS:          0
cpu0_L1D AVERAGE MISS LATENCY: 21.69 cycles
cpu0_L1I TOTAL        ACCESS:    5640234 HIT:    4836194 MISS:     804040
cpu0_L1I LOAD         ACCESS:    5640234 HIT:    4836194 MISS:     804040
cpu0_L1I RFO          ACCESS:          0 HIT:          0 MISS:          0
cpu0_L1I PREFETCH     ACCESS:          0 HIT:          0 MISS:          0
cpu0_L1I WRITE        ACCESS:          0 HIT:          0 MISS:          0
cpu0_L1I TRANSLATION  ACCESS:          0 HIT:          0 MISS:          0
cpu0_L1I PREFETCH REQUESTED:          0 ISSUED:          0 USEFUL:          0 USELESS:          0
cpu0_L1I AVERAGE MISS LATENCY: 8.08 cycles
cpu0_L2C TOTAL        ACCESS:    1668452 HIT:    1211147 MISS:     457305
cpu0_L2C LOAD         ACCESS:    1315342 HIT:     911577 MISS:     403765
cpu0_L2C RFO          ACCESS:      89529 HIT:      56974 MISS:      32555
cpu0_L2C PREFETCH     ACCESS:          0 HIT:          0 MISS:          0
cpu0_L2C WRITE        ACCESS:     240260 HIT:     238436 MISS:       1824
cpu0_L2C TRANSLATION  ACCESS:      23321 HIT:       4160 MISS:      19161
cpu0_L2C PREFETCH REQUESTED:          0 ISSUED:          0 USEFUL:          0 USELESS:          0
cpu0_L2C AVERAGE MISS LATENCY: 73.72 cycles
cpu0_STLB TOTAL        ACCESS:     507812 HIT:     485024 MISS:      22788
cpu0_STLB LOAD         ACCESS:     507812 HIT:     485024 MISS:      22788
cpu0_STLB RFO          ACCESS:          0 HIT:          0 MISS:          0
cpu0_STLB PREFETCH     ACCESS:          0 HIT:          0 MISS:          0
cpu0_STLB WRITE        ACCESS:          0 HIT:          0 MISS:          0
cpu0_STLB TRANSLATION  ACCESS:          0 HIT:          0 MISS:          0
cpu0_STLB PREFETCH REQUESTED:          0 ISSUED:          0 USEFUL:          0 USELESS:          0
cpu0_STLB AVERAGE MISS LATENCY: 185.1 cycles

DRAM Statistics

Channel 0 RQ ROW_BUFFER_HIT:      13248
  ROW_BUFFER_MISS:      34380
 AVG DBUS CONGESTED CYCLE: 3.785
WQ ROW_BUFFER_HIT: Channel 0 
  ROW_BUFFER_MISS:        379
  FULL:        888
