WARNING: physical memory size is smaller than virtual memory size.

*** ChampSim Multicore Out-of-Order Simulator ***
Warmup Instructions: 50000000
Simulation Instructions: 600000000
Number of CPUs: 1
Page size: 4096

Off-chip DRAM Size: 4 GiB Channels: 1 Width: 64-bit Data Race: 3200 MT/s
Heartbeat CPU 0 instructions: 10000001 cycles: 2500318 heartbeat IPC: 3.999 cumulative IPC: 3.999 (Simulation time: 00 hr 00 min 35 sec)
Heartbeat CPU 0 instructions: 20000002 cycles: 5037122 heartbeat IPC: 3.942 cumulative IPC: 3.971 (Simulation time: 00 hr 01 min 23 sec)
Heartbeat CPU 0 instructions: 30000002 cycles: 7537122 heartbeat IPC: 4 cumulative IPC: 3.98 (Simulation time: 00 hr 02 min 14 sec)
Heartbeat CPU 0 instructions: 40000002 cycles: 10037122 heartbeat IPC: 4 cumulative IPC: 3.985 (Simulation time: 00 hr 03 min 12 sec)
Heartbeat CPU 0 instructions: 50000002 cycles: 12537122 heartbeat IPC: 4 cumulative IPC: 3.988 (Simulation time: 00 hr 04 min 16 sec)
Warmup finished CPU 0 instructions: 50000002 cycles: 12537123 cumulative IPC: 3.988 (Simulation time: 00 hr 04 min 16 sec)
Warmup complete CPU 0 instructions: 50000002 cycles: 12537123 cumulative IPC: 3.988 (Simulation time: 00 hr 04 min 16 sec)
Heartbeat CPU 0 instructions: 60000000 cycles: 17119892 heartbeat IPC: 2.182 cumulative IPC: 2.182 (Simulation time: 00 hr 05 min 57 sec)
Heartbeat CPU 0 instructions: 70000004 cycles: 21367531 heartbeat IPC: 2.354 cumulative IPC: 2.265 (Simulation time: 00 hr 07 min 38 sec)
Heartbeat CPU 0 instructions: 80000001 cycles: 25933260 heartbeat IPC: 2.19 cumulative IPC: 2.239 (Simulation time: 00 hr 09 min 15 sec)
Heartbeat CPU 0 instructions: 90000001 cycles: 30037572 heartbeat IPC: 2.436 cumulative IPC: 2.286 (Simulation time: 00 hr 10 min 49 sec)
Heartbeat CPU 0 instructions: 100000000 cycles: 34067190 heartbeat IPC: 2.482 cumulative IPC: 2.322 (Simulation time: 00 hr 12 min 23 sec)
Heartbeat CPU 0 instructions: 110000000 cycles: 38286375 heartbeat IPC: 2.37 cumulative IPC: 2.33 (Simulation time: 00 hr 14 min 00 sec)
Heartbeat CPU 0 instructions: 120000001 cycles: 42276394 heartbeat IPC: 2.506 cumulative IPC: 2.354 (Simulation time: 00 hr 15 min 34 sec)
Heartbeat CPU 0 instructions: 130000001 cycles: 45985131 heartbeat IPC: 2.696 cumulative IPC: 2.392 (Simulation time: 00 hr 17 min 12 sec)
Heartbeat CPU 0 instructions: 140000001 cycles: 50114146 heartbeat IPC: 2.422 cumulative IPC: 2.395 (Simulation time: 00 hr 18 min 48 sec)
Heartbeat CPU 0 instructions: 150000001 cycles: 54282333 heartbeat IPC: 2.399 cumulative IPC: 2.395 (Simulation time: 00 hr 20 min 23 sec)
Heartbeat CPU 0 instructions: 160000004 cycles: 58657791 heartbeat IPC: 2.285 cumulative IPC: 2.385 (Simulation time: 00 hr 22 min 02 sec)
Heartbeat CPU 0 instructions: 170000000 cycles: 65907619 heartbeat IPC: 1.379 cumulative IPC: 2.248 (Simulation time: 00 hr 24 min 30 sec)
Heartbeat CPU 0 instructions: 180000004 cycles: 72372351 heartbeat IPC: 1.547 cumulative IPC: 2.173 (Simulation time: 00 hr 26 min 44 sec)
Heartbeat CPU 0 instructions: 190000001 cycles: 78005600 heartbeat IPC: 1.775 cumulative IPC: 2.138 (Simulation time: 00 hr 28 min 49 sec)
Heartbeat CPU 0 instructions: 200000004 cycles: 81494766 heartbeat IPC: 2.866 cumulative IPC: 2.175 (Simulation time: 00 hr 29 min 50 sec)
Heartbeat CPU 0 instructions: 210000001 cycles: 85184235 heartbeat IPC: 2.71 cumulative IPC: 2.202 (Simulation time: 00 hr 30 min 32 sec)
Heartbeat CPU 0 instructions: 220000000 cycles: 89001745 heartbeat IPC: 2.62 cumulative IPC: 2.223 (Simulation time: 00 hr 31 min 16 sec)
Heartbeat CPU 0 instructions: 230000002 cycles: 93220336 heartbeat IPC: 2.37 cumulative IPC: 2.231 (Simulation time: 00 hr 32 min 01 sec)
Heartbeat CPU 0 instructions: 240000000 cycles: 97136043 heartbeat IPC: 2.554 cumulative IPC: 2.246 (Simulation time: 00 hr 32 min 43 sec)
Heartbeat CPU 0 instructions: 250000000 cycles: 101113606 heartbeat IPC: 2.514 cumulative IPC: 2.258 (Simulation time: 00 hr 33 min 27 sec)
Heartbeat CPU 0 instructions: 260000000 cycles: 104959789 heartbeat IPC: 2.6 cumulative IPC: 2.272 (Simulation time: 00 hr 34 min 09 sec)
Heartbeat CPU 0 instructions: 270000002 cycles: 108582634 heartbeat IPC: 2.76 cumulative IPC: 2.291 (Simulation time: 00 hr 34 min 52 sec)
Heartbeat CPU 0 instructions: 280000002 cycles: 112492149 heartbeat IPC: 2.558 cumulative IPC: 2.301 (Simulation time: 00 hr 35 min 36 sec)
Heartbeat CPU 0 instructions: 290000001 cycles: 116180983 heartbeat IPC: 2.711 cumulative IPC: 2.316 (Simulation time: 00 hr 36 min 17 sec)
Heartbeat CPU 0 instructions: 300000003 cycles: 119684896 heartbeat IPC: 2.854 cumulative IPC: 2.333 (Simulation time: 00 hr 37 min 00 sec)
Heartbeat CPU 0 instructions: 310000001 cycles: 123461443 heartbeat IPC: 2.648 cumulative IPC: 2.344 (Simulation time: 00 hr 37 min 44 sec)
Heartbeat CPU 0 instructions: 320000003 cycles: 127265038 heartbeat IPC: 2.629 cumulative IPC: 2.353 (Simulation time: 00 hr 38 min 26 sec)
Heartbeat CPU 0 instructions: 330000003 cycles: 131283908 heartbeat IPC: 2.488 cumulative IPC: 2.358 (Simulation time: 00 hr 39 min 11 sec)
Heartbeat CPU 0 instructions: 340000000 cycles: 137254365 heartbeat IPC: 1.675 cumulative IPC: 2.325 (Simulation time: 00 hr 40 min 09 sec)
Heartbeat CPU 0 instructions: 350000000 cycles: 143935265 heartbeat IPC: 1.497 cumulative IPC: 2.283 (Simulation time: 00 hr 41 min 10 sec)
Heartbeat CPU 0 instructions: 360000004 cycles: 149750304 heartbeat IPC: 1.72 cumulative IPC: 2.259 (Simulation time: 00 hr 42 min 09 sec)
Heartbeat CPU 0 instructions: 370000000 cycles: 152976497 heartbeat IPC: 3.1 cumulative IPC: 2.279 (Simulation time: 00 hr 42 min 51 sec)
Heartbeat CPU 0 instructions: 380000001 cycles: 156188310 heartbeat IPC: 3.114 cumulative IPC: 2.297 (Simulation time: 00 hr 43 min 32 sec)
Heartbeat CPU 0 instructions: 390000004 cycles: 159780400 heartbeat IPC: 2.784 cumulative IPC: 2.309 (Simulation time: 00 hr 44 min 14 sec)
Heartbeat CPU 0 instructions: 400000004 cycles: 163491856 heartbeat IPC: 2.694 cumulative IPC: 2.319 (Simulation time: 00 hr 44 min 57 sec)
Heartbeat CPU 0 instructions: 410000001 cycles: 166909269 heartbeat IPC: 2.926 cumulative IPC: 2.332 (Simulation time: 00 hr 45 min 38 sec)
Heartbeat CPU 0 instructions: 420000003 cycles: 170599511 heartbeat IPC: 2.71 cumulative IPC: 2.341 (Simulation time: 00 hr 46 min 21 sec)
Heartbeat CPU 0 instructions: 430000001 cycles: 174076753 heartbeat IPC: 2.876 cumulative IPC: 2.352 (Simulation time: 00 hr 47 min 05 sec)
Heartbeat CPU 0 instructions: 440000004 cycles: 177869324 heartbeat IPC: 2.637 cumulative IPC: 2.359 (Simulation time: 00 hr 47 min 50 sec)
Heartbeat CPU 0 instructions: 450000002 cycles: 181349307 heartbeat IPC: 2.874 cumulative IPC: 2.369 (Simulation time: 00 hr 48 min 35 sec)
Heartbeat CPU 0 instructions: 460000000 cycles: 184803592 heartbeat IPC: 2.895 cumulative IPC: 2.38 (Simulation time: 00 hr 49 min 20 sec)
Heartbeat CPU 0 instructions: 470000000 cycles: 188080819 heartbeat IPC: 3.051 cumulative IPC: 2.393 (Simulation time: 00 hr 50 min 04 sec)
Heartbeat CPU 0 instructions: 480000003 cycles: 191675528 heartbeat IPC: 2.782 cumulative IPC: 2.4 (Simulation time: 00 hr 50 min 49 sec)
Heartbeat CPU 0 instructions: 490000000 cycles: 195156313 heartbeat IPC: 2.873 cumulative IPC: 2.409 (Simulation time: 00 hr 51 min 35 sec)
Heartbeat CPU 0 instructions: 500000000 cycles: 198711340 heartbeat IPC: 2.813 cumulative IPC: 2.417 (Simulation time: 00 hr 52 min 21 sec)
Heartbeat CPU 0 instructions: 510000003 cycles: 202121247 heartbeat IPC: 2.933 cumulative IPC: 2.426 (Simulation time: 00 hr 53 min 06 sec)
Heartbeat CPU 0 instructions: 520000001 cycles: 205275970 heartbeat IPC: 3.17 cumulative IPC: 2.439 (Simulation time: 00 hr 53 min 50 sec)
Heartbeat CPU 0 instructions: 530000002 cycles: 208744346 heartbeat IPC: 2.883 cumulative IPC: 2.446 (Simulation time: 00 hr 54 min 34 sec)
Heartbeat CPU 0 instructions: 540000000 cycles: 212062296 heartbeat IPC: 3.014 cumulative IPC: 2.456 (Simulation time: 00 hr 55 min 18 sec)
Heartbeat CPU 0 instructions: 550000001 cycles: 215584078 heartbeat IPC: 2.839 cumulative IPC: 2.462 (Simulation time: 00 hr 56 min 02 sec)
Heartbeat CPU 0 instructions: 560000000 cycles: 219240376 heartbeat IPC: 2.735 cumulative IPC: 2.467 (Simulation time: 00 hr 56 min 48 sec)
Heartbeat CPU 0 instructions: 570000004 cycles: 223784948 heartbeat IPC: 2.2 cumulative IPC: 2.462 (Simulation time: 00 hr 57 min 41 sec)
Heartbeat CPU 0 instructions: 580000003 cycles: 230177448 heartbeat IPC: 1.564 cumulative IPC: 2.435 (Simulation time: 00 hr 58 min 44 sec)
Heartbeat CPU 0 instructions: 590000002 cycles: 236903997 heartbeat IPC: 1.487 cumulative IPC: 2.407 (Simulation time: 00 hr 59 min 50 sec)
Heartbeat CPU 0 instructions: 600000000 cycles: 240395448 heartbeat IPC: 2.864 cumulative IPC: 2.414 (Simulation time: 01 hr 00 min 33 sec)
Heartbeat CPU 0 instructions: 610000000 cycles: 244057327 heartbeat IPC: 2.731 cumulative IPC: 2.419 (Simulation time: 01 hr 01 min 17 sec)
Heartbeat CPU 0 instructions: 620000001 cycles: 247382170 heartbeat IPC: 3.008 cumulative IPC: 2.427 (Simulation time: 01 hr 02 min 00 sec)
Heartbeat CPU 0 instructions: 630000002 cycles: 251482453 heartbeat IPC: 2.439 cumulative IPC: 2.427 (Simulation time: 01 hr 02 min 47 sec)
Heartbeat CPU 0 instructions: 640000001 cycles: 255304150 heartbeat IPC: 2.617 cumulative IPC: 2.43 (Simulation time: 01 hr 03 min 32 sec)
Heartbeat CPU 0 instructions: 650000000 cycles: 258990617 heartbeat IPC: 2.713 cumulative IPC: 2.435 (Simulation time: 01 hr 04 min 16 sec)
Simulation finished CPU 0 instructions: 600000001 cycles: 246453496 cumulative IPC: 2.435 (Simulation time: 01 hr 04 min 16 sec)
Simulation complete CPU 0 instructions: 600000001 cycles: 246453496 cumulative IPC: 2.435 (Simulation time: 01 hr 04 min 16 sec)

ChampSim completed all CPUs

=== Simulation ===
CPU 0 runs traces/400.perlbench-41B.champsimtrace.xz
Region of Interest Statistics

CPU 0 cumulative IPC: 2.435 instructions: 600000001 cycles: 246453496
CPU 0 Branch Prediction Accuracy: 96.56% MPKI: 7.112 Average ROB Occupancy at Mispredict: 46.64
Branch type MPKI
BRANCH_DIRECT_JUMP: 0.0123
BRANCH_INDIRECT: 0.323
BRANCH_CONDITIONAL: 6.56
BRANCH_DIRECT_CALL: 0.0043
BRANCH_INDIRECT_CALL: 0.2
BRANCH_RETURN: 0.00828

LLC TOTAL        ACCESS:     593903 HIT:     547243 MISS:      46660
LLC LOAD         ACCESS:     403228 HIT:     372067 MISS:      31161
LLC RFO          ACCESS:      32497 HIT:      28107 MISS:       4390
LLC PREFETCH     ACCESS:      53447 HIT:      49152 MISS:       4295
LLC WRITE        ACCESS:      85519 HIT:      85332 MISS:        187
LLC TRANSLATION  ACCESS:      19212 HIT:      12585 MISS:       6627
LLC PREFETCH REQUESTED:      53447 ISSUED:      53447 USEFUL:       2689 USELESS:        125
LLC AVERAGE MISS LATENCY: 514.7 cycles
cpu0_DTLB TOTAL        ACCESS:  141908248 HIT:  141223539 MISS:     684709
cpu0_DTLB LOAD         ACCESS:  141908248 HIT:  141223539 MISS:     684709
cpu0_DTLB RFO          ACCESS:          0 HIT:          0 MISS:          0
cpu0_DTLB PREFETCH     ACCESS:          0 HIT:          0 MISS:          0
cpu0_DTLB WRITE        ACCESS:          0 HIT:          0 MISS:          0
cpu0_DTLB TRANSLATION  ACCESS:          0 HIT:          0 MISS:          0
cpu0_DTLB PREFETCH REQUESTED:          0 ISSUED:          0 USEFUL:          0 USELESS:          0
cpu0_DTLB AVERAGE MISS LATENCY: 10.42 cycles
cpu0_ITLB TOTAL        ACCESS:    4857252 HIT:    4804145 MISS:      53107
cpu0_ITLB LOAD         ACCESS:    4857252 HIT:    4804145 MISS:      53107
cpu0_ITLB RFO          ACCESS:          0 HIT:          0 MISS:          0
cpu0_ITLB PREFETCH     ACCESS:          0 HIT:          0 MISS:          0
cpu0_ITLB WRITE        ACCESS:          0 HIT:          0 MISS:          0
cpu0_ITLB TRANSLATION  ACCESS:          0 HIT:          0 MISS:          0
cpu0_ITLB PREFETCH REQUESTED:          0 ISSUED:          0 USEFUL:          0 USELESS:          0
cpu0_ITLB AVERAGE MISS LATENCY: 4.928 cycles
cpu0_L1D TOTAL        ACCESS:  188595847 HIT:  186917815 MISS:    1678032
cpu0_L1D LOAD         ACCESS:  105229282 HIT:  103916147 MISS:    1313135
cpu0_L1D RFO          ACCESS:          0 HIT:          0 MISS:          0
cpu0_L1D PREFETCH     ACCESS:          0 HIT:          0 MISS:          0
cpu0_L1D WRITE        ACCESS:   83342099 HIT:   83000604 MISS:     341495
cpu0_L1D TRANSLATION  ACCESS:      24466 HIT:       1064 MISS:      23402
cpu0_L1D PREFETCH REQUESTED:          0 ISSUED:          0 USEFUL:          0 USELESS:          0
cpu0_L1D AVERAGE MISS LATENCY: 21.12 cycles
cpu0_L1I TOTAL        ACCESS:    5595260 HIT:    4852017 MISS:     743243
cpu0_L1I LOAD         ACCESS:    5595260 HIT:    4852017 MISS:     743243
cpu0_L1I RFO          ACCESS:          0 HIT:          0 MISS:          0
cpu0_L1I PREFETCH     ACCESS:          0 HIT:          0 MISS:          0
cpu0_L1I WRITE        ACCESS:          0 HIT:          0 MISS:          0
cpu0_L1I TRANSLATION  ACCESS:          0 HIT:          0 MISS:          0
cpu0_L1I PREFETCH REQUESTED:          0 ISSUED:          0 USEFUL:          0 USELESS:          0
cpu0_L1I AVERAGE MISS LATENCY: 8.977 cycles
cpu0_L2C TOTAL        ACCESS:    1666256 HIT:    1209507 MISS:     456749
cpu0_L2C LOAD         ACCESS:    1316070 HIT:     912842 MISS:     403228
cpu0_L2C RFO          ACCESS:      88296 HIT:      55799 MISS:      32497
cpu0_L2C PREFETCH     ACCESS:          0 HIT:          0 MISS:          0
cpu0_L2C WRITE        ACCESS:     238560 HIT:     236748 MISS:       1812
cpu0_L2C TRANSLATION  ACCESS:      23330 HIT:       4118 MISS:      19212
cpu0_L2C PREFETCH REQUESTED:          0 ISSUED:          0 USEFUL:          0 USELESS:          0
cpu0_L2C AVERAGE MISS LATENCY: 66.71 cycles
cpu0_STLB TOTAL        ACCESS:     506532 HIT:     483738 MISS:      22794
cpu0_STLB LOAD         ACCESS:     506532 HIT:     483738 MISS:      22794
cpu0_STLB RFO          ACCESS:          0 HIT:          0 MISS:          0
cpu0_STLB PREFETCH     ACCESS:          0 HIT:          0 MISS:          0
cpu0_STLB WRITE        ACCESS:          0 HIT:          0 MISS:          0
cpu0_STLB TRANSLATION  ACCESS:          0 HIT:          0 MISS:          0
cpu0_STLB PREFETCH REQUESTED:          0 ISSUED:          0 USEFUL:          0 USELESS:          0
cpu0_STLB AVERAGE MISS LATENCY: 181 cycles

DRAM Statistics

Channel 0 RQ ROW_BUFFER_HIT:      12590
  ROW_BUFFER_MISS:      33476
 AVG DBUS CONGESTED CYCLE: 3.737
WQ ROW_BUFFER_HIT: Channel 0 
  ROW_BUFFER_MISS:        544
  FULL:       1630
