WARNING: physical memory size is smaller than virtual memory size.

*** ChampSim Multicore Out-of-Order Simulator ***
Warmup Instructions: 50000000
Simulation Instructions: 600000000
Number of CPUs: 1
Page size: 4096

Off-chip DRAM Size: 4 GiB Channels: 1 Width: 64-bit Data Race: 3200 MT/s
Heartbeat CPU 0 instructions: 10000001 cycles: 2500319 heartbeat IPC: 3.999 cumulative IPC: 3.999 (Simulation time: 00 hr 03 min 53 sec)
Heartbeat CPU 0 instructions: 20000002 cycles: 5037117 heartbeat IPC: 3.942 cumulative IPC: 3.971 (Simulation time: 00 hr 07 min 53 sec)
Heartbeat CPU 0 instructions: 30000002 cycles: 7537117 heartbeat IPC: 4 cumulative IPC: 3.98 (Simulation time: 00 hr 11 min 27 sec)
Heartbeat CPU 0 instructions: 40000002 cycles: 10037117 heartbeat IPC: 4 cumulative IPC: 3.985 (Simulation time: 00 hr 15 min 05 sec)
Heartbeat CPU 0 instructions: 50000002 cycles: 12537117 heartbeat IPC: 4 cumulative IPC: 3.988 (Simulation time: 00 hr 18 min 40 sec)
Warmup finished CPU 0 instructions: 50000002 cycles: 12537118 cumulative IPC: 3.988 (Simulation time: 00 hr 18 min 40 sec)
Warmup complete CPU 0 instructions: 50000002 cycles: 12537118 cumulative IPC: 3.988 (Simulation time: 00 hr 18 min 40 sec)
Heartbeat CPU 0 instructions: 60000001 cycles: 15786022 heartbeat IPC: 3.078 cumulative IPC: 3.078 (Simulation time: 00 hr 23 min 22 sec)
Heartbeat CPU 0 instructions: 70000004 cycles: 19027659 heartbeat IPC: 3.085 cumulative IPC: 3.081 (Simulation time: 00 hr 27 min 50 sec)
Heartbeat CPU 0 instructions: 80000001 cycles: 22280966 heartbeat IPC: 3.074 cumulative IPC: 3.079 (Simulation time: 00 hr 32 min 17 sec)
Heartbeat CPU 0 instructions: 90000001 cycles: 25373375 heartbeat IPC: 3.234 cumulative IPC: 3.116 (Simulation time: 00 hr 36 min 40 sec)
Heartbeat CPU 0 instructions: 100000000 cycles: 28447240 heartbeat IPC: 3.253 cumulative IPC: 3.143 (Simulation time: 00 hr 41 min 04 sec)
Heartbeat CPU 0 instructions: 110000000 cycles: 31527864 heartbeat IPC: 3.246 cumulative IPC: 3.159 (Simulation time: 00 hr 45 min 25 sec)
Heartbeat CPU 0 instructions: 120000001 cycles: 34652257 heartbeat IPC: 3.201 cumulative IPC: 3.165 (Simulation time: 00 hr 49 min 48 sec)
Heartbeat CPU 0 instructions: 130000001 cycles: 37610184 heartbeat IPC: 3.381 cumulative IPC: 3.191 (Simulation time: 00 hr 54 min 10 sec)
Heartbeat CPU 0 instructions: 140000001 cycles: 40801545 heartbeat IPC: 3.133 cumulative IPC: 3.184 (Simulation time: 00 hr 58 min 38 sec)
Heartbeat CPU 0 instructions: 150000001 cycles: 43977047 heartbeat IPC: 3.149 cumulative IPC: 3.181 (Simulation time: 01 hr 03 min 10 sec)
Heartbeat CPU 0 instructions: 160000004 cycles: 47177196 heartbeat IPC: 3.125 cumulative IPC: 3.176 (Simulation time: 01 hr 07 min 49 sec)
Heartbeat CPU 0 instructions: 170000000 cycles: 53141724 heartbeat IPC: 1.677 cumulative IPC: 2.955 (Simulation time: 01 hr 14 min 17 sec)
Heartbeat CPU 0 instructions: 180000004 cycles: 58161376 heartbeat IPC: 1.992 cumulative IPC: 2.849 (Simulation time: 01 hr 20 min 19 sec)
Heartbeat CPU 0 instructions: 190000001 cycles: 62575968 heartbeat IPC: 2.265 cumulative IPC: 2.798 (Simulation time: 01 hr 25 min 54 sec)
Heartbeat CPU 0 instructions: 200000004 cycles: 65429775 heartbeat IPC: 3.504 cumulative IPC: 2.836 (Simulation time: 01 hr 30 min 08 sec)
Heartbeat CPU 0 instructions: 210000001 cycles: 68334314 heartbeat IPC: 3.443 cumulative IPC: 2.868 (Simulation time: 01 hr 34 min 27 sec)
Heartbeat CPU 0 instructions: 220000000 cycles: 71218402 heartbeat IPC: 3.467 cumulative IPC: 2.897 (Simulation time: 01 hr 38 min 41 sec)
Heartbeat CPU 0 instructions: 230000004 cycles: 74121235 heartbeat IPC: 3.445 cumulative IPC: 2.923 (Simulation time: 01 hr 42 min 55 sec)
Heartbeat CPU 0 instructions: 240000002 cycles: 77083942 heartbeat IPC: 3.375 cumulative IPC: 2.944 (Simulation time: 01 hr 47 min 12 sec)
Heartbeat CPU 0 instructions: 250000000 cycles: 80008205 heartbeat IPC: 3.42 cumulative IPC: 2.964 (Simulation time: 01 hr 51 min 27 sec)
Heartbeat CPU 0 instructions: 260000002 cycles: 82884455 heartbeat IPC: 3.477 cumulative IPC: 2.985 (Simulation time: 01 hr 55 min 40 sec)
Heartbeat CPU 0 instructions: 270000002 cycles: 85758351 heartbeat IPC: 3.48 cumulative IPC: 3.005 (Simulation time: 01 hr 59 min 56 sec)
Heartbeat CPU 0 instructions: 280000002 cycles: 88606870 heartbeat IPC: 3.511 cumulative IPC: 3.024 (Simulation time: 02 hr 04 min 07 sec)
Heartbeat CPU 0 instructions: 290000002 cycles: 91538917 heartbeat IPC: 3.411 cumulative IPC: 3.038 (Simulation time: 02 hr 08 min 24 sec)
Heartbeat CPU 0 instructions: 300000003 cycles: 94352177 heartbeat IPC: 3.555 cumulative IPC: 3.056 (Simulation time: 02 hr 12 min 40 sec)
Heartbeat CPU 0 instructions: 310000001 cycles: 97278511 heartbeat IPC: 3.417 cumulative IPC: 3.068 (Simulation time: 02 hr 16 min 57 sec)
Heartbeat CPU 0 instructions: 320000003 cycles: 100268928 heartbeat IPC: 3.344 cumulative IPC: 3.078 (Simulation time: 02 hr 21 min 19 sec)
Heartbeat CPU 0 instructions: 330000003 cycles: 103237899 heartbeat IPC: 3.368 cumulative IPC: 3.087 (Simulation time: 02 hr 25 min 34 sec)
Heartbeat CPU 0 instructions: 340000000 cycles: 108552968 heartbeat IPC: 1.881 cumulative IPC: 3.02 (Simulation time: 02 hr 31 min 42 sec)
Heartbeat CPU 0 instructions: 350000000 cycles: 113570052 heartbeat IPC: 1.993 cumulative IPC: 2.969 (Simulation time: 02 hr 37 min 45 sec)
Heartbeat CPU 0 instructions: 360000004 cycles: 118173839 heartbeat IPC: 2.172 cumulative IPC: 2.935 (Simulation time: 02 hr 43 min 27 sec)
Heartbeat CPU 0 instructions: 370000000 cycles: 121027997 heartbeat IPC: 3.504 cumulative IPC: 2.95 (Simulation time: 02 hr 47 min 42 sec)
Heartbeat CPU 0 instructions: 380000001 cycles: 123858571 heartbeat IPC: 3.533 cumulative IPC: 2.964 (Simulation time: 02 hr 51 min 58 sec)
Heartbeat CPU 0 instructions: 390000002 cycles: 126806064 heartbeat IPC: 3.393 cumulative IPC: 2.975 (Simulation time: 02 hr 56 min 18 sec)
Heartbeat CPU 0 instructions: 400000004 cycles: 129698606 heartbeat IPC: 3.457 cumulative IPC: 2.987 (Simulation time: 03 hr 00 min 35 sec)
Heartbeat CPU 0 instructions: 410000001 cycles: 132587119 heartbeat IPC: 3.462 cumulative IPC: 2.999 (Simulation time: 03 hr 04 min 49 sec)
Heartbeat CPU 0 instructions: 420000002 cycles: 135600541 heartbeat IPC: 3.318 cumulative IPC: 3.007 (Simulation time: 03 hr 09 min 07 sec)
Heartbeat CPU 0 instructions: 430000001 cycles: 138533434 heartbeat IPC: 3.41 cumulative IPC: 3.016 (Simulation time: 03 hr 13 min 27 sec)
Heartbeat CPU 0 instructions: 440000004 cycles: 141612954 heartbeat IPC: 3.247 cumulative IPC: 3.021 (Simulation time: 03 hr 17 min 47 sec)
Heartbeat CPU 0 instructions: 450000002 cycles: 144458360 heartbeat IPC: 3.514 cumulative IPC: 3.032 (Simulation time: 03 hr 21 min 59 sec)
Heartbeat CPU 0 instructions: 460000000 cycles: 147354806 heartbeat IPC: 3.453 cumulative IPC: 3.041 (Simulation time: 03 hr 26 min 12 sec)
Heartbeat CPU 0 instructions: 470000001 cycles: 150152061 heartbeat IPC: 3.575 cumulative IPC: 3.052 (Simulation time: 03 hr 30 min 24 sec)
Heartbeat CPU 0 instructions: 480000003 cycles: 153148067 heartbeat IPC: 3.338 cumulative IPC: 3.058 (Simulation time: 03 hr 34 min 35 sec)
Heartbeat CPU 0 instructions: 490000004 cycles: 155964549 heartbeat IPC: 3.551 cumulative IPC: 3.068 (Simulation time: 03 hr 39 min 00 sec)
Heartbeat CPU 0 instructions: 500000004 cycles: 158932383 heartbeat IPC: 3.369 cumulative IPC: 3.074 (Simulation time: 03 hr 43 min 18 sec)
Heartbeat CPU 0 instructions: 510000003 cycles: 161881999 heartbeat IPC: 3.39 cumulative IPC: 3.08 (Simulation time: 03 hr 47 min 48 sec)
Heartbeat CPU 0 instructions: 520000001 cycles: 164722391 heartbeat IPC: 3.521 cumulative IPC: 3.088 (Simulation time: 03 hr 52 min 06 sec)
Heartbeat CPU 0 instructions: 530000001 cycles: 167671317 heartbeat IPC: 3.391 cumulative IPC: 3.094 (Simulation time: 03 hr 56 min 25 sec)
Heartbeat CPU 0 instructions: 540000001 cycles: 170603721 heartbeat IPC: 3.41 cumulative IPC: 3.1 (Simulation time: 04 hr 00 min 44 sec)
Heartbeat CPU 0 instructions: 550000001 cycles: 173603898 heartbeat IPC: 3.333 cumulative IPC: 3.104 (Simulation time: 04 hr 05 min 00 sec)
Heartbeat CPU 0 instructions: 560000004 cycles: 176674145 heartbeat IPC: 3.257 cumulative IPC: 3.107 (Simulation time: 04 hr 09 min 22 sec)
Heartbeat CPU 0 instructions: 570000004 cycles: 180837071 heartbeat IPC: 2.402 cumulative IPC: 3.09 (Simulation time: 04 hr 14 min 34 sec)
Heartbeat CPU 0 instructions: 580000003 cycles: 186191168 heartbeat IPC: 1.868 cumulative IPC: 3.052 (Simulation time: 04 hr 20 min 51 sec)
Heartbeat CPU 0 instructions: 590000002 cycles: 191524508 heartbeat IPC: 1.875 cumulative IPC: 3.017 (Simulation time: 04 hr 27 min 19 sec)
Heartbeat CPU 0 instructions: 600000000 cycles: 194435014 heartbeat IPC: 3.436 cumulative IPC: 3.024 (Simulation time: 04 hr 31 min 34 sec)
Heartbeat CPU 0 instructions: 610000002 cycles: 197333807 heartbeat IPC: 3.45 cumulative IPC: 3.03 (Simulation time: 04 hr 35 min 47 sec)
Heartbeat CPU 0 instructions: 620000001 cycles: 200101105 heartbeat IPC: 3.614 cumulative IPC: 3.039 (Simulation time: 04 hr 40 min 01 sec)
Heartbeat CPU 0 instructions: 630000002 cycles: 203088031 heartbeat IPC: 3.348 cumulative IPC: 3.044 (Simulation time: 04 hr 44 min 21 sec)
Heartbeat CPU 0 instructions: 640000004 cycles: 206045922 heartbeat IPC: 3.381 cumulative IPC: 3.049 (Simulation time: 04 hr 48 min 39 sec)
Heartbeat CPU 0 instructions: 650000000 cycles: 208825427 heartbeat IPC: 3.598 cumulative IPC: 3.057 (Simulation time: 04 hr 52 min 48 sec)
Simulation finished CPU 0 instructions: 600000001 cycles: 196288311 cumulative IPC: 3.057 (Simulation time: 04 hr 52 min 48 sec)
Simulation complete CPU 0 instructions: 600000001 cycles: 196288311 cumulative IPC: 3.057 (Simulation time: 04 hr 52 min 48 sec)

ChampSim completed all CPUs

=== Simulation ===
CPU 0 runs traces/400.perlbench-41B.champsimtrace.xz
Region of Interest Statistics

CPU 0 cumulative IPC: 3.057 instructions: 600000001 cycles: 196288311
CPU 0 Branch Prediction Accuracy: 98.9% MPKI: 2.275 Average ROB Occupancy at Mispredict: 90.3
Branch type MPKI
BRANCH_DIRECT_JUMP: 0.0123
BRANCH_INDIRECT: 0.323
BRANCH_CONDITIONAL: 1.73
BRANCH_DIRECT_CALL: 0.0043
BRANCH_INDIRECT_CALL: 0.2
BRANCH_RETURN: 0.00828

LLC TOTAL        ACCESS:     831639 HIT:     725057 MISS:     106582
LLC LOAD         ACCESS:     398434 HIT:     363414 MISS:      35020
LLC RFO          ACCESS:      32156 HIT:      26975 MISS:       5181
LLC PREFETCH     ACCESS:     298034 HIT:     240391 MISS:      57643
LLC WRITE        ACCESS:      84121 HIT:      83169 MISS:        952
LLC TRANSLATION  ACCESS:      18894 HIT:      11108 MISS:       7786
LLC PREFETCH REQUESTED:     298038 ISSUED:     298034 USEFUL:      14978 USELESS:      27248
LLC AVERAGE MISS LATENCY: 723.2 cycles
cpu0_DTLB TOTAL        ACCESS:  131063727 HIT:  130364159 MISS:     699568
cpu0_DTLB LOAD         ACCESS:  131063727 HIT:  130364159 MISS:     699568
cpu0_DTLB RFO          ACCESS:          0 HIT:          0 MISS:          0
cpu0_DTLB PREFETCH     ACCESS:          0 HIT:          0 MISS:          0
cpu0_DTLB WRITE        ACCESS:          0 HIT:          0 MISS:          0
cpu0_DTLB TRANSLATION  ACCESS:          0 HIT:          0 MISS:          0
cpu0_DTLB PREFETCH REQUESTED:          0 ISSUED:          0 USEFUL:          0 USELESS:          0
cpu0_DTLB AVERAGE MISS LATENCY: 11.63 cycles
cpu0_ITLB TOTAL        ACCESS:    4850581 HIT:    4789755 MISS:      60826
cpu0_ITLB LOAD         ACCESS:    4850581 HIT:    4789755 MISS:      60826
cpu0_ITLB RFO          ACCESS:          0 HIT:          0 MISS:          0
cpu0_ITLB PREFETCH     ACCESS:          0 HIT:          0 MISS:          0
cpu0_ITLB WRITE        ACCESS:          0 HIT:          0 MISS:          0
cpu0_ITLB TRANSLATION  ACCESS:          0 HIT:          0 MISS:          0
cpu0_ITLB PREFETCH REQUESTED:          0 ISSUED:          0 USEFUL:          0 USELESS:          0
cpu0_ITLB AVERAGE MISS LATENCY: 5.216 cycles
cpu0_L1D TOTAL        ACCESS:  176742612 HIT:  175018023 MISS:    1724589
cpu0_L1D LOAD         ACCESS:   93663611 HIT:   92321945 MISS:    1341666
cpu0_L1D RFO          ACCESS:          0 HIT:          0 MISS:          0
cpu0_L1D PREFETCH     ACCESS:          0 HIT:          0 MISS:          0
cpu0_L1D WRITE        ACCESS:   83054542 HIT:   82695014 MISS:     359528
cpu0_L1D TRANSLATION  ACCESS:      24459 HIT:       1064 MISS:      23395
cpu0_L1D PREFETCH REQUESTED:          0 ISSUED:          0 USEFUL:          0 USELESS:          0
cpu0_L1D AVERAGE MISS LATENCY: 27.08 cycles
cpu0_L1I TOTAL        ACCESS:    5628268 HIT:    4829111 MISS:     799157
cpu0_L1I LOAD         ACCESS:    5628268 HIT:    4829111 MISS:     799157
cpu0_L1I RFO          ACCESS:          0 HIT:          0 MISS:          0
cpu0_L1I PREFETCH     ACCESS:          0 HIT:          0 MISS:          0
cpu0_L1I WRITE        ACCESS:          0 HIT:          0 MISS:          0
cpu0_L1I TRANSLATION  ACCESS:          0 HIT:          0 MISS:          0
cpu0_L1I PREFETCH REQUESTED:          0 ISSUED:          0 USEFUL:          0 USELESS:          0
cpu0_L1I AVERAGE MISS LATENCY: 8.1 cycles
cpu0_L2C TOTAL        ACCESS:    1668355 HIT:    1217240 MISS:     451115
cpu0_L2C LOAD         ACCESS:    1315474 HIT:     917039 MISS:     398435
cpu0_L2C RFO          ACCESS:      89445 HIT:      57289 MISS:      32156
cpu0_L2C PREFETCH     ACCESS:          0 HIT:          0 MISS:          0
cpu0_L2C WRITE        ACCESS:     240122 HIT:     238492 MISS:       1630
cpu0_L2C TRANSLATION  ACCESS:      23314 HIT:       4420 MISS:      18894
cpu0_L2C PREFETCH REQUESTED:          0 ISSUED:          0 USEFUL:          0 USELESS:          0
cpu0_L2C AVERAGE MISS LATENCY: 95.48 cycles
cpu0_STLB TOTAL        ACCESS:     507527 HIT:     484742 MISS:      22785
cpu0_STLB LOAD         ACCESS:     507527 HIT:     484742 MISS:      22785
cpu0_STLB RFO          ACCESS:          0 HIT:          0 MISS:          0
cpu0_STLB PREFETCH     ACCESS:          0 HIT:          0 MISS:          0
cpu0_STLB WRITE        ACCESS:          0 HIT:          0 MISS:          0
cpu0_STLB TRANSLATION  ACCESS:          0 HIT:          0 MISS:          0
cpu0_STLB PREFETCH REQUESTED:          0 ISSUED:          0 USEFUL:          0 USELESS:          0
cpu0_STLB AVERAGE MISS LATENCY: 235.6 cycles

DRAM Statistics

Channel 0 RQ ROW_BUFFER_HIT:      39088
  ROW_BUFFER_MISS:      63389
 AVG DBUS CONGESTED CYCLE: 3.89
WQ ROW_BUFFER_HIT: Channel 0 
  ROW_BUFFER_MISS:       1729
  FULL:       4175
