WARNING: physical memory size is smaller than virtual memory size.

*** ChampSim Multicore Out-of-Order Simulator ***
Warmup Instructions: 50000000
Simulation Instructions: 600000000
Number of CPUs: 1
Page size: 4096

Off-chip DRAM Size: 4 GiB Channels: 1 Width: 64-bit Data Race: 3200 MT/s
Heartbeat CPU 0 instructions: 10000000 cycles: 2500061 heartbeat IPC: 4 cumulative IPC: 4 (Simulation time: 00 hr 03 min 22 sec)
Heartbeat CPU 0 instructions: 20000000 cycles: 5000061 heartbeat IPC: 4 cumulative IPC: 4 (Simulation time: 00 hr 06 min 49 sec)
Heartbeat CPU 0 instructions: 30000000 cycles: 7500061 heartbeat IPC: 4 cumulative IPC: 4 (Simulation time: 00 hr 10 min 15 sec)
Heartbeat CPU 0 instructions: 40000000 cycles: 10000061 heartbeat IPC: 4 cumulative IPC: 4 (Simulation time: 00 hr 13 min 36 sec)
Heartbeat CPU 0 instructions: 50000000 cycles: 12500061 heartbeat IPC: 4 cumulative IPC: 4 (Simulation time: 00 hr 16 min 57 sec)
Warmup finished CPU 0 instructions: 50000000 cycles: 12500062 cumulative IPC: 4 (Simulation time: 00 hr 16 min 57 sec)
Warmup complete CPU 0 instructions: 50000000 cycles: 12500062 cumulative IPC: 4 (Simulation time: 00 hr 16 min 57 sec)
Heartbeat CPU 0 instructions: 60000002 cycles: 16911341 heartbeat IPC: 2.267 cumulative IPC: 2.267 (Simulation time: 00 hr 21 min 49 sec)
Heartbeat CPU 0 instructions: 70000003 cycles: 21897820 heartbeat IPC: 2.005 cumulative IPC: 2.128 (Simulation time: 00 hr 26 min 56 sec)
Heartbeat CPU 0 instructions: 80000001 cycles: 27247190 heartbeat IPC: 1.869 cumulative IPC: 2.034 (Simulation time: 00 hr 32 min 17 sec)
Heartbeat CPU 0 instructions: 90000000 cycles: 31546012 heartbeat IPC: 2.326 cumulative IPC: 2.1 (Simulation time: 00 hr 37 min 03 sec)
Heartbeat CPU 0 instructions: 100000003 cycles: 36406147 heartbeat IPC: 2.058 cumulative IPC: 2.092 (Simulation time: 00 hr 42 min 06 sec)
Heartbeat CPU 0 instructions: 110000002 cycles: 41284204 heartbeat IPC: 2.05 cumulative IPC: 2.084 (Simulation time: 00 hr 47 min 10 sec)
Heartbeat CPU 0 instructions: 120000001 cycles: 46280693 heartbeat IPC: 2.001 cumulative IPC: 2.072 (Simulation time: 00 hr 52 min 31 sec)
Heartbeat CPU 0 instructions: 130000003 cycles: 50851474 heartbeat IPC: 2.188 cumulative IPC: 2.086 (Simulation time: 00 hr 57 min 26 sec)
Heartbeat CPU 0 instructions: 140000002 cycles: 55744742 heartbeat IPC: 2.044 cumulative IPC: 2.081 (Simulation time: 01 hr 02 min 32 sec)
Heartbeat CPU 0 instructions: 150000001 cycles: 60416524 heartbeat IPC: 2.141 cumulative IPC: 2.087 (Simulation time: 01 hr 07 min 31 sec)
Heartbeat CPU 0 instructions: 160000000 cycles: 65057180 heartbeat IPC: 2.155 cumulative IPC: 2.093 (Simulation time: 01 hr 12 min 31 sec)
Heartbeat CPU 0 instructions: 170000000 cycles: 70394497 heartbeat IPC: 1.874 cumulative IPC: 2.073 (Simulation time: 01 hr 17 min 52 sec)
Heartbeat CPU 0 instructions: 180000001 cycles: 76116472 heartbeat IPC: 1.748 cumulative IPC: 2.043 (Simulation time: 01 hr 23 min 27 sec)
Heartbeat CPU 0 instructions: 190000002 cycles: 80593267 heartbeat IPC: 2.234 cumulative IPC: 2.056 (Simulation time: 01 hr 28 min 22 sec)
Heartbeat CPU 0 instructions: 200000002 cycles: 85503685 heartbeat IPC: 2.036 cumulative IPC: 2.055 (Simulation time: 01 hr 33 min 34 sec)
Heartbeat CPU 0 instructions: 210000000 cycles: 90509961 heartbeat IPC: 1.997 cumulative IPC: 2.051 (Simulation time: 01 hr 38 min 44 sec)
Heartbeat CPU 0 instructions: 220000001 cycles: 95435925 heartbeat IPC: 2.03 cumulative IPC: 2.05 (Simulation time: 01 hr 43 min 53 sec)
Heartbeat CPU 0 instructions: 230000002 cycles: 100684992 heartbeat IPC: 1.905 cumulative IPC: 2.041 (Simulation time: 01 hr 49 min 14 sec)
Heartbeat CPU 0 instructions: 240000001 cycles: 105652106 heartbeat IPC: 2.013 cumulative IPC: 2.04 (Simulation time: 01 hr 54 min 25 sec)
Heartbeat CPU 0 instructions: 250000003 cycles: 110840378 heartbeat IPC: 1.927 cumulative IPC: 2.034 (Simulation time: 01 hr 59 min 36 sec)
Heartbeat CPU 0 instructions: 260000001 cycles: 115702940 heartbeat IPC: 2.057 cumulative IPC: 2.035 (Simulation time: 02 hr 04 min 43 sec)
Heartbeat CPU 0 instructions: 270000000 cycles: 123412770 heartbeat IPC: 1.297 cumulative IPC: 1.984 (Simulation time: 02 hr 11 min 47 sec)
Heartbeat CPU 0 instructions: 280000000 cycles: 134300678 heartbeat IPC: 0.9185 cumulative IPC: 1.888 (Simulation time: 02 hr 20 min 54 sec)
Heartbeat CPU 0 instructions: 290000001 cycles: 143603761 heartbeat IPC: 1.075 cumulative IPC: 1.831 (Simulation time: 02 hr 29 min 16 sec)
Heartbeat CPU 0 instructions: 300000003 cycles: 150986182 heartbeat IPC: 1.355 cumulative IPC: 1.805 (Simulation time: 02 hr 36 min 27 sec)
Heartbeat CPU 0 instructions: 310000004 cycles: 161317144 heartbeat IPC: 0.968 cumulative IPC: 1.747 (Simulation time: 02 hr 45 min 26 sec)
Heartbeat CPU 0 instructions: 320000004 cycles: 166896913 heartbeat IPC: 1.792 cumulative IPC: 1.749 (Simulation time: 02 hr 51 min 16 sec)
Heartbeat CPU 0 instructions: 330000000 cycles: 172118339 heartbeat IPC: 1.915 cumulative IPC: 1.754 (Simulation time: 02 hr 56 min 40 sec)
Heartbeat CPU 0 instructions: 340000001 cycles: 176848369 heartbeat IPC: 2.114 cumulative IPC: 1.765 (Simulation time: 03 hr 01 min 45 sec)
Heartbeat CPU 0 instructions: 350000000 cycles: 181746634 heartbeat IPC: 2.042 cumulative IPC: 1.773 (Simulation time: 03 hr 07 min 01 sec)
Heartbeat CPU 0 instructions: 360000003 cycles: 186430475 heartbeat IPC: 2.135 cumulative IPC: 1.782 (Simulation time: 03 hr 12 min 05 sec)
Heartbeat CPU 0 instructions: 370000001 cycles: 191103972 heartbeat IPC: 2.14 cumulative IPC: 1.792 (Simulation time: 03 hr 17 min 08 sec)
Heartbeat CPU 0 instructions: 380000004 cycles: 196062429 heartbeat IPC: 2.017 cumulative IPC: 1.798 (Simulation time: 03 hr 22 min 24 sec)
Heartbeat CPU 0 instructions: 390000002 cycles: 200906918 heartbeat IPC: 2.064 cumulative IPC: 1.805 (Simulation time: 03 hr 27 min 34 sec)
Heartbeat CPU 0 instructions: 400000000 cycles: 205842297 heartbeat IPC: 2.026 cumulative IPC: 1.81 (Simulation time: 03 hr 32 min 48 sec)
Heartbeat CPU 0 instructions: 410000000 cycles: 211808313 heartbeat IPC: 1.676 cumulative IPC: 1.806 (Simulation time: 03 hr 38 min 50 sec)
Heartbeat CPU 0 instructions: 420000001 cycles: 218801678 heartbeat IPC: 1.43 cumulative IPC: 1.793 (Simulation time: 03 hr 45 min 36 sec)
Heartbeat CPU 0 instructions: 430000000 cycles: 225359363 heartbeat IPC: 1.525 cumulative IPC: 1.785 (Simulation time: 03 hr 52 min 21 sec)
Heartbeat CPU 0 instructions: 440000002 cycles: 231810169 heartbeat IPC: 1.55 cumulative IPC: 1.778 (Simulation time: 03 hr 58 min 52 sec)
Heartbeat CPU 0 instructions: 450000000 cycles: 238125716 heartbeat IPC: 1.583 cumulative IPC: 1.773 (Simulation time: 04 hr 05 min 19 sec)
Heartbeat CPU 0 instructions: 460000002 cycles: 245535884 heartbeat IPC: 1.349 cumulative IPC: 1.759 (Simulation time: 04 hr 12 min 28 sec)
Heartbeat CPU 0 instructions: 470000000 cycles: 251845428 heartbeat IPC: 1.585 cumulative IPC: 1.755 (Simulation time: 04 hr 18 min 52 sec)
Heartbeat CPU 0 instructions: 480000000 cycles: 256742797 heartbeat IPC: 2.042 cumulative IPC: 1.761 (Simulation time: 04 hr 24 min 06 sec)
Heartbeat CPU 0 instructions: 490000001 cycles: 261587338 heartbeat IPC: 2.064 cumulative IPC: 1.766 (Simulation time: 04 hr 29 min 18 sec)
Heartbeat CPU 0 instructions: 500000002 cycles: 266401075 heartbeat IPC: 2.077 cumulative IPC: 1.772 (Simulation time: 04 hr 34 min 30 sec)
Heartbeat CPU 0 instructions: 510000000 cycles: 271276305 heartbeat IPC: 2.051 cumulative IPC: 1.778 (Simulation time: 04 hr 39 min 51 sec)
Heartbeat CPU 0 instructions: 520000000 cycles: 276198947 heartbeat IPC: 2.031 cumulative IPC: 1.782 (Simulation time: 04 hr 45 min 14 sec)
Heartbeat CPU 0 instructions: 530000001 cycles: 282954188 heartbeat IPC: 1.48 cumulative IPC: 1.775 (Simulation time: 04 hr 51 min 54 sec)
Heartbeat CPU 0 instructions: 540000000 cycles: 289627829 heartbeat IPC: 1.498 cumulative IPC: 1.768 (Simulation time: 04 hr 58 min 38 sec)
Heartbeat CPU 0 instructions: 550000002 cycles: 296768212 heartbeat IPC: 1.4 cumulative IPC: 1.759 (Simulation time: 05 hr 05 min 35 sec)
Heartbeat CPU 0 instructions: 560000004 cycles: 301148678 heartbeat IPC: 2.283 cumulative IPC: 1.767 (Simulation time: 05 hr 10 min 30 sec)
Heartbeat CPU 0 instructions: 570000001 cycles: 305499366 heartbeat IPC: 2.298 cumulative IPC: 1.775 (Simulation time: 05 hr 15 min 27 sec)
Heartbeat CPU 0 instructions: 580000003 cycles: 309627920 heartbeat IPC: 2.422 cumulative IPC: 1.784 (Simulation time: 05 hr 20 min 13 sec)
Heartbeat CPU 0 instructions: 590000001 cycles: 314434237 heartbeat IPC: 2.081 cumulative IPC: 1.788 (Simulation time: 05 hr 25 min 23 sec)
Heartbeat CPU 0 instructions: 600000003 cycles: 319022817 heartbeat IPC: 2.179 cumulative IPC: 1.794 (Simulation time: 05 hr 30 min 43 sec)
Heartbeat CPU 0 instructions: 610000001 cycles: 323815227 heartbeat IPC: 2.087 cumulative IPC: 1.799 (Simulation time: 05 hr 35 min 50 sec)
Heartbeat CPU 0 instructions: 620000000 cycles: 328825722 heartbeat IPC: 1.996 cumulative IPC: 1.802 (Simulation time: 05 hr 41 min 11 sec)
Heartbeat CPU 0 instructions: 630000002 cycles: 333031766 heartbeat IPC: 2.378 cumulative IPC: 1.809 (Simulation time: 05 hr 46 min 02 sec)
Heartbeat CPU 0 instructions: 640000004 cycles: 338301766 heartbeat IPC: 1.898 cumulative IPC: 1.811 (Simulation time: 05 hr 51 min 29 sec)
Heartbeat CPU 0 instructions: 650000001 cycles: 343043522 heartbeat IPC: 2.109 cumulative IPC: 1.815 (Simulation time: 05 hr 56 min 42 sec)
Simulation finished CPU 0 instructions: 600000001 cycles: 330543461 cumulative IPC: 1.815 (Simulation time: 05 hr 56 min 42 sec)
Simulation complete CPU 0 instructions: 600000001 cycles: 330543461 cumulative IPC: 1.815 (Simulation time: 05 hr 56 min 42 sec)

ChampSim completed all CPUs

=== Simulation ===
CPU 0 runs traces/400.perlbench-50B.champsimtrace.xz
Region of Interest Statistics

CPU 0 cumulative IPC: 1.815 instructions: 600000001 cycles: 330543461
CPU 0 Branch Prediction Accuracy: 93.83% MPKI: 12.71 Average ROB Occupancy at Mispredict: 29.17
Branch type MPKI
BRANCH_DIRECT_JUMP: 0.0176
BRANCH_INDIRECT: 0.38
BRANCH_CONDITIONAL: 11.9
BRANCH_DIRECT_CALL: 0.0067
BRANCH_INDIRECT_CALL: 0.431
BRANCH_RETURN: 0.0161

LLC TOTAL        ACCESS:     784915 HIT:     671188 MISS:     113727
LLC LOAD         ACCESS:     587176 HIT:     492137 MISS:      95039
LLC RFO          ACCESS:      47466 HIT:      38150 MISS:       9316
LLC PREFETCH     ACCESS:          0 HIT:          0 MISS:          0
LLC WRITE        ACCESS:     128188 HIT:     128039 MISS:        149
LLC TRANSLATION  ACCESS:      22085 HIT:      12862 MISS:       9223
LLC PREFETCH REQUESTED:          0 ISSUED:          0 USEFUL:          0 USELESS:          0
LLC AVERAGE MISS LATENCY: 470.7 cycles
cpu0_DTLB TOTAL        ACCESS:  156790599 HIT:  155490545 MISS:    1300054
cpu0_DTLB LOAD         ACCESS:  156790599 HIT:  155490545 MISS:    1300054
cpu0_DTLB RFO          ACCESS:          0 HIT:          0 MISS:          0
cpu0_DTLB PREFETCH     ACCESS:          0 HIT:          0 MISS:          0
cpu0_DTLB WRITE        ACCESS:          0 HIT:          0 MISS:          0
cpu0_DTLB TRANSLATION  ACCESS:          0 HIT:          0 MISS:          0
cpu0_DTLB PREFETCH REQUESTED:          0 ISSUED:          0 USEFUL:          0 USELESS:          0
cpu0_DTLB AVERAGE MISS LATENCY: 9.946 cycles
cpu0_ITLB TOTAL        ACCESS:    8932468 HIT:    8733880 MISS:     198588
cpu0_ITLB LOAD         ACCESS:    8932468 HIT:    8733880 MISS:     198588
cpu0_ITLB RFO          ACCESS:          0 HIT:          0 MISS:          0
cpu0_ITLB PREFETCH     ACCESS:          0 HIT:          0 MISS:          0
cpu0_ITLB WRITE        ACCESS:          0 HIT:          0 MISS:          0
cpu0_ITLB TRANSLATION  ACCESS:          0 HIT:          0 MISS:          0
cpu0_ITLB PREFETCH REQUESTED:          0 ISSUED:          0 USEFUL:          0 USELESS:          0
cpu0_ITLB AVERAGE MISS LATENCY: 2.544 cycles
cpu0_L1D TOTAL        ACCESS:  203652680 HIT:  200013336 MISS:    3639344
cpu0_L1D LOAD         ACCESS:  117975731 HIT:  114977783 MISS:    2997948
cpu0_L1D RFO          ACCESS:          0 HIT:          0 MISS:          0
cpu0_L1D PREFETCH     ACCESS:          0 HIT:          0 MISS:          0
cpu0_L1D WRITE        ACCESS:   85648403 HIT:   85034143 MISS:     614260
cpu0_L1D TRANSLATION  ACCESS:      28546 HIT:       1410 MISS:      27136
cpu0_L1D PREFETCH REQUESTED:          0 ISSUED:          0 USEFUL:          0 USELESS:          0
cpu0_L1D AVERAGE MISS LATENCY: 21.42 cycles
cpu0_L1I TOTAL        ACCESS:   10371128 HIT:    8573633 MISS:    1797495
cpu0_L1I LOAD         ACCESS:   10371128 HIT:    8573633 MISS:    1797495
cpu0_L1I RFO          ACCESS:          0 HIT:          0 MISS:          0
cpu0_L1I PREFETCH     ACCESS:          0 HIT:          0 MISS:          0
cpu0_L1I WRITE        ACCESS:          0 HIT:          0 MISS:          0
cpu0_L1I TRANSLATION  ACCESS:          0 HIT:          0 MISS:          0
cpu0_L1I PREFETCH REQUESTED:          0 ISSUED:          0 USEFUL:          0 USELESS:          0
cpu0_L1I AVERAGE MISS LATENCY: 9.173 cycles
cpu0_L2C TOTAL        ACCESS:    3837314 HIT:    3177343 MISS:     659971
cpu0_L2C LOAD         ACCESS:    3106491 HIT:    2519315 MISS:     587176
cpu0_L2C RFO          ACCESS:     191754 HIT:     144288 MISS:      47466
cpu0_L2C PREFETCH     ACCESS:          0 HIT:          0 MISS:          0
cpu0_L2C WRITE        ACCESS:     512008 HIT:     508764 MISS:       3244
cpu0_L2C TRANSLATION  ACCESS:      27061 HIT:       4976 MISS:      22085
cpu0_L2C PREFETCH REQUESTED:          0 ISSUED:          0 USEFUL:          0 USELESS:          0
cpu0_L2C AVERAGE MISS LATENCY: 101.2 cycles
cpu0_STLB TOTAL        ACCESS:    1009162 HIT:     982468 MISS:      26694
cpu0_STLB LOAD         ACCESS:    1009162 HIT:     982468 MISS:      26694
cpu0_STLB RFO          ACCESS:          0 HIT:          0 MISS:          0
cpu0_STLB PREFETCH     ACCESS:          0 HIT:          0 MISS:          0
cpu0_STLB WRITE        ACCESS:          0 HIT:          0 MISS:          0
cpu0_STLB TRANSLATION  ACCESS:          0 HIT:          0 MISS:          0
cpu0_STLB PREFETCH REQUESTED:          0 ISSUED:          0 USEFUL:          0 USELESS:          0
cpu0_STLB AVERAGE MISS LATENCY: 255.6 cycles

DRAM Statistics

Channel 0 RQ ROW_BUFFER_HIT:      34609
  ROW_BUFFER_MISS:      78968
 AVG DBUS CONGESTED CYCLE: 3.705
WQ ROW_BUFFER_HIT: Channel 0 
  ROW_BUFFER_MISS:        584
  FULL:        862
