WARNING: physical memory size is smaller than virtual memory size.

*** ChampSim Multicore Out-of-Order Simulator ***
Warmup Instructions: 50000000
Simulation Instructions: 600000000
Number of CPUs: 1
Page size: 4096

Off-chip DRAM Size: 4 GiB Channels: 1 Width: 64-bit Data Race: 3200 MT/s
Heartbeat CPU 0 instructions: 10000001 cycles: 2500318 heartbeat IPC: 3.999 cumulative IPC: 3.999 (Simulation time: 00 hr 00 min 32 sec)
Heartbeat CPU 0 instructions: 20000002 cycles: 5037110 heartbeat IPC: 3.942 cumulative IPC: 3.971 (Simulation time: 00 hr 01 min 11 sec)
Heartbeat CPU 0 instructions: 30000002 cycles: 7537110 heartbeat IPC: 4 cumulative IPC: 3.98 (Simulation time: 00 hr 01 min 59 sec)
Heartbeat CPU 0 instructions: 40000002 cycles: 10037110 heartbeat IPC: 4 cumulative IPC: 3.985 (Simulation time: 00 hr 02 min 55 sec)
Heartbeat CPU 0 instructions: 50000002 cycles: 12537110 heartbeat IPC: 4 cumulative IPC: 3.988 (Simulation time: 00 hr 03 min 56 sec)
Warmup finished CPU 0 instructions: 50000002 cycles: 12537111 cumulative IPC: 3.988 (Simulation time: 00 hr 03 min 56 sec)
Warmup complete CPU 0 instructions: 50000002 cycles: 12537111 cumulative IPC: 3.988 (Simulation time: 00 hr 03 min 56 sec)
Heartbeat CPU 0 instructions: 60000000 cycles: 17678454 heartbeat IPC: 1.945 cumulative IPC: 1.945 (Simulation time: 00 hr 05 min 39 sec)
Heartbeat CPU 0 instructions: 70000002 cycles: 22551878 heartbeat IPC: 2.052 cumulative IPC: 1.997 (Simulation time: 00 hr 07 min 31 sec)
Heartbeat CPU 0 instructions: 80000001 cycles: 27893077 heartbeat IPC: 1.872 cumulative IPC: 1.954 (Simulation time: 00 hr 09 min 15 sec)
Heartbeat CPU 0 instructions: 90000001 cycles: 32754353 heartbeat IPC: 2.057 cumulative IPC: 1.979 (Simulation time: 00 hr 10 min 51 sec)
Heartbeat CPU 0 instructions: 100000000 cycles: 37847841 heartbeat IPC: 1.963 cumulative IPC: 1.975 (Simulation time: 00 hr 12 min 35 sec)
Heartbeat CPU 0 instructions: 110000000 cycles: 42717062 heartbeat IPC: 2.054 cumulative IPC: 1.988 (Simulation time: 00 hr 14 min 23 sec)
Heartbeat CPU 0 instructions: 120000001 cycles: 47888437 heartbeat IPC: 1.934 cumulative IPC: 1.98 (Simulation time: 00 hr 16 min 08 sec)
Heartbeat CPU 0 instructions: 130000001 cycles: 53018841 heartbeat IPC: 1.949 cumulative IPC: 1.976 (Simulation time: 00 hr 17 min 48 sec)
Heartbeat CPU 0 instructions: 140000001 cycles: 58296415 heartbeat IPC: 1.895 cumulative IPC: 1.967 (Simulation time: 00 hr 19 min 32 sec)
Heartbeat CPU 0 instructions: 150000001 cycles: 63587459 heartbeat IPC: 1.89 cumulative IPC: 1.959 (Simulation time: 00 hr 21 min 18 sec)
Heartbeat CPU 0 instructions: 160000004 cycles: 68753126 heartbeat IPC: 1.936 cumulative IPC: 1.957 (Simulation time: 00 hr 23 min 11 sec)
Heartbeat CPU 0 instructions: 170000000 cycles: 76434748 heartbeat IPC: 1.302 cumulative IPC: 1.878 (Simulation time: 00 hr 25 min 40 sec)
Heartbeat CPU 0 instructions: 180000004 cycles: 82862876 heartbeat IPC: 1.556 cumulative IPC: 1.849 (Simulation time: 00 hr 28 min 04 sec)
Heartbeat CPU 0 instructions: 190000001 cycles: 88858048 heartbeat IPC: 1.668 cumulative IPC: 1.834 (Simulation time: 00 hr 29 min 58 sec)
Heartbeat CPU 0 instructions: 200000003 cycles: 93323924 heartbeat IPC: 2.239 cumulative IPC: 1.857 (Simulation time: 00 hr 30 min 43 sec)
Heartbeat CPU 0 instructions: 210000001 cycles: 98004648 heartbeat IPC: 2.136 cumulative IPC: 1.872 (Simulation time: 00 hr 31 min 31 sec)
Heartbeat CPU 0 instructions: 220000000 cycles: 102687611 heartbeat IPC: 2.135 cumulative IPC: 1.886 (Simulation time: 00 hr 32 min 20 sec)
Heartbeat CPU 0 instructions: 230000002 cycles: 107528039 heartbeat IPC: 2.066 cumulative IPC: 1.895 (Simulation time: 00 hr 33 min 09 sec)
Heartbeat CPU 0 instructions: 240000000 cycles: 112080763 heartbeat IPC: 2.196 cumulative IPC: 1.909 (Simulation time: 00 hr 33 min 57 sec)
Heartbeat CPU 0 instructions: 250000000 cycles: 116884043 heartbeat IPC: 2.082 cumulative IPC: 1.917 (Simulation time: 00 hr 34 min 47 sec)
Heartbeat CPU 0 instructions: 260000000 cycles: 121561951 heartbeat IPC: 2.138 cumulative IPC: 1.926 (Simulation time: 00 hr 35 min 32 sec)
Heartbeat CPU 0 instructions: 270000002 cycles: 126211038 heartbeat IPC: 2.151 cumulative IPC: 1.935 (Simulation time: 00 hr 36 min 17 sec)
Heartbeat CPU 0 instructions: 280000002 cycles: 130847783 heartbeat IPC: 2.157 cumulative IPC: 1.944 (Simulation time: 00 hr 37 min 05 sec)
Heartbeat CPU 0 instructions: 290000001 cycles: 135999653 heartbeat IPC: 1.941 cumulative IPC: 1.944 (Simulation time: 00 hr 37 min 58 sec)
Heartbeat CPU 0 instructions: 300000003 cycles: 140718803 heartbeat IPC: 2.119 cumulative IPC: 1.95 (Simulation time: 00 hr 38 min 48 sec)
Heartbeat CPU 0 instructions: 310000001 cycles: 145643036 heartbeat IPC: 2.031 cumulative IPC: 1.953 (Simulation time: 00 hr 39 min 39 sec)
Heartbeat CPU 0 instructions: 320000003 cycles: 150563584 heartbeat IPC: 2.032 cumulative IPC: 1.956 (Simulation time: 00 hr 40 min 30 sec)
Heartbeat CPU 0 instructions: 330000003 cycles: 155461170 heartbeat IPC: 2.042 cumulative IPC: 1.959 (Simulation time: 00 hr 41 min 19 sec)
Heartbeat CPU 0 instructions: 340000000 cycles: 161817160 heartbeat IPC: 1.573 cumulative IPC: 1.943 (Simulation time: 00 hr 42 min 18 sec)
Heartbeat CPU 0 instructions: 350000000 cycles: 168612331 heartbeat IPC: 1.472 cumulative IPC: 1.922 (Simulation time: 00 hr 43 min 23 sec)
Heartbeat CPU 0 instructions: 360000004 cycles: 174847462 heartbeat IPC: 1.604 cumulative IPC: 1.91 (Simulation time: 00 hr 44 min 24 sec)
Heartbeat CPU 0 instructions: 370000000 cycles: 179034585 heartbeat IPC: 2.388 cumulative IPC: 1.922 (Simulation time: 00 hr 45 min 09 sec)
Heartbeat CPU 0 instructions: 380000001 cycles: 183741059 heartbeat IPC: 2.125 cumulative IPC: 1.928 (Simulation time: 00 hr 45 min 56 sec)
Heartbeat CPU 0 instructions: 390000002 cycles: 188410374 heartbeat IPC: 2.142 cumulative IPC: 1.933 (Simulation time: 00 hr 46 min 41 sec)
Heartbeat CPU 0 instructions: 400000004 cycles: 193240706 heartbeat IPC: 2.07 cumulative IPC: 1.937 (Simulation time: 00 hr 47 min 27 sec)
Heartbeat CPU 0 instructions: 410000000 cycles: 197720546 heartbeat IPC: 2.232 cumulative IPC: 1.944 (Simulation time: 00 hr 48 min 12 sec)
Heartbeat CPU 0 instructions: 420000000 cycles: 202485335 heartbeat IPC: 2.099 cumulative IPC: 1.948 (Simulation time: 00 hr 49 min 00 sec)
Heartbeat CPU 0 instructions: 430000001 cycles: 206759084 heartbeat IPC: 2.34 cumulative IPC: 1.957 (Simulation time: 00 hr 49 min 47 sec)
Heartbeat CPU 0 instructions: 440000000 cycles: 211819779 heartbeat IPC: 1.976 cumulative IPC: 1.957 (Simulation time: 00 hr 50 min 36 sec)
Heartbeat CPU 0 instructions: 450000002 cycles: 216232583 heartbeat IPC: 2.266 cumulative IPC: 1.964 (Simulation time: 00 hr 51 min 21 sec)
Heartbeat CPU 0 instructions: 460000000 cycles: 220804155 heartbeat IPC: 2.187 cumulative IPC: 1.969 (Simulation time: 00 hr 52 min 09 sec)
Heartbeat CPU 0 instructions: 470000000 cycles: 225584634 heartbeat IPC: 2.092 cumulative IPC: 1.971 (Simulation time: 00 hr 52 min 58 sec)
Heartbeat CPU 0 instructions: 480000003 cycles: 230132991 heartbeat IPC: 2.199 cumulative IPC: 1.976 (Simulation time: 00 hr 53 min 44 sec)
Heartbeat CPU 0 instructions: 490000000 cycles: 234586059 heartbeat IPC: 2.246 cumulative IPC: 1.982 (Simulation time: 00 hr 54 min 29 sec)
Heartbeat CPU 0 instructions: 500000000 cycles: 239459407 heartbeat IPC: 2.052 cumulative IPC: 1.983 (Simulation time: 00 hr 55 min 16 sec)
Heartbeat CPU 0 instructions: 510000003 cycles: 244835806 heartbeat IPC: 1.86 cumulative IPC: 1.98 (Simulation time: 00 hr 56 min 06 sec)
Heartbeat CPU 0 instructions: 520000001 cycles: 249254164 heartbeat IPC: 2.263 cumulative IPC: 1.985 (Simulation time: 00 hr 56 min 53 sec)
Heartbeat CPU 0 instructions: 530000002 cycles: 254182308 heartbeat IPC: 2.029 cumulative IPC: 1.986 (Simulation time: 00 hr 57 min 41 sec)
Heartbeat CPU 0 instructions: 540000000 cycles: 259080169 heartbeat IPC: 2.042 cumulative IPC: 1.987 (Simulation time: 00 hr 58 min 28 sec)
Heartbeat CPU 0 instructions: 550000001 cycles: 263705814 heartbeat IPC: 2.162 cumulative IPC: 1.991 (Simulation time: 00 hr 59 min 14 sec)
Heartbeat CPU 0 instructions: 560000000 cycles: 268601260 heartbeat IPC: 2.043 cumulative IPC: 1.992 (Simulation time: 01 hr 00 min 01 sec)
Heartbeat CPU 0 instructions: 570000004 cycles: 273929701 heartbeat IPC: 1.877 cumulative IPC: 1.989 (Simulation time: 01 hr 00 min 51 sec)
Heartbeat CPU 0 instructions: 580000003 cycles: 280637229 heartbeat IPC: 1.491 cumulative IPC: 1.977 (Simulation time: 01 hr 01 min 49 sec)
Heartbeat CPU 0 instructions: 590000002 cycles: 287424737 heartbeat IPC: 1.473 cumulative IPC: 1.964 (Simulation time: 01 hr 02 min 50 sec)
Heartbeat CPU 0 instructions: 600000000 cycles: 291744416 heartbeat IPC: 2.315 cumulative IPC: 1.97 (Simulation time: 01 hr 03 min 33 sec)
Heartbeat CPU 0 instructions: 610000002 cycles: 296035854 heartbeat IPC: 2.33 cumulative IPC: 1.975 (Simulation time: 01 hr 04 min 19 sec)
Heartbeat CPU 0 instructions: 620000000 cycles: 300727977 heartbeat IPC: 2.131 cumulative IPC: 1.978 (Simulation time: 01 hr 05 min 09 sec)
Heartbeat CPU 0 instructions: 630000002 cycles: 305632846 heartbeat IPC: 2.039 cumulative IPC: 1.979 (Simulation time: 01 hr 05 min 57 sec)
Heartbeat CPU 0 instructions: 640000001 cycles: 310406793 heartbeat IPC: 2.095 cumulative IPC: 1.981 (Simulation time: 01 hr 06 min 47 sec)
Heartbeat CPU 0 instructions: 650000000 cycles: 314889502 heartbeat IPC: 2.231 cumulative IPC: 1.984 (Simulation time: 01 hr 07 min 37 sec)
Simulation finished CPU 0 instructions: 600000001 cycles: 302352393 cumulative IPC: 1.984 (Simulation time: 01 hr 07 min 37 sec)
Simulation complete CPU 0 instructions: 600000001 cycles: 302352393 cumulative IPC: 1.984 (Simulation time: 01 hr 07 min 37 sec)

ChampSim completed all CPUs

=== Simulation ===
CPU 0 runs traces/400.perlbench-41B.champsimtrace.xz
Region of Interest Statistics

CPU 0 cumulative IPC: 1.984 instructions: 600000001 cycles: 302352393
CPU 0 Branch Prediction Accuracy: 93.95% MPKI: 12.5 Average ROB Occupancy at Mispredict: 29.26
Branch type MPKI
BRANCH_DIRECT_JUMP: 0.0123
BRANCH_INDIRECT: 0.323
BRANCH_CONDITIONAL: 12
BRANCH_DIRECT_CALL: 0.0043
BRANCH_INDIRECT_CALL: 0.2
BRANCH_RETURN: 0.00828

LLC TOTAL        ACCESS:     595602 HIT:     548990 MISS:      46612
LLC LOAD         ACCESS:     403715 HIT:     372581 MISS:      31134
LLC RFO          ACCESS:      32587 HIT:      28225 MISS:       4362
LLC PREFETCH     ACCESS:      54287 HIT:      49936 MISS:       4351
LLC WRITE        ACCESS:      85810 HIT:      85640 MISS:        170
LLC TRANSLATION  ACCESS:      19203 HIT:      12608 MISS:       6595
LLC PREFETCH REQUESTED:      54287 ISSUED:      54287 USEFUL:       2789 USELESS:        109
LLC AVERAGE MISS LATENCY: 499.2 cycles
cpu0_DTLB TOTAL        ACCESS:  153698069 HIT:  153021665 MISS:     676404
cpu0_DTLB LOAD         ACCESS:  153698069 HIT:  153021665 MISS:     676404
cpu0_DTLB RFO          ACCESS:          0 HIT:          0 MISS:          0
cpu0_DTLB PREFETCH     ACCESS:          0 HIT:          0 MISS:          0
cpu0_DTLB WRITE        ACCESS:          0 HIT:          0 MISS:          0
cpu0_DTLB TRANSLATION  ACCESS:          0 HIT:          0 MISS:          0
cpu0_DTLB PREFETCH REQUESTED:          0 ISSUED:          0 USEFUL:          0 USELESS:          0
cpu0_DTLB AVERAGE MISS LATENCY: 10.64 cycles
cpu0_ITLB TOTAL        ACCESS:    4839016 HIT:    4781157 MISS:      57859
cpu0_ITLB LOAD         ACCESS:    4839016 HIT:    4781157 MISS:      57859
cpu0_ITLB RFO          ACCESS:          0 HIT:          0 MISS:          0
cpu0_ITLB PREFETCH     ACCESS:          0 HIT:          0 MISS:          0
cpu0_ITLB WRITE        ACCESS:          0 HIT:          0 MISS:          0
cpu0_ITLB TRANSLATION  ACCESS:          0 HIT:          0 MISS:          0
cpu0_ITLB PREFETCH REQUESTED:          0 ISSUED:          0 USEFUL:          0 USELESS:          0
cpu0_ITLB AVERAGE MISS LATENCY: 4.318 cycles
cpu0_L1D TOTAL        ACCESS:  200330517 HIT:  198650755 MISS:    1679762
cpu0_L1D LOAD         ACCESS:  117087496 HIT:  115775514 MISS:    1311982
cpu0_L1D RFO          ACCESS:          0 HIT:          0 MISS:          0
cpu0_L1D PREFETCH     ACCESS:          0 HIT:          0 MISS:          0
cpu0_L1D WRITE        ACCESS:   83218553 HIT:   82874199 MISS:     344354
cpu0_L1D TRANSLATION  ACCESS:      24468 HIT:       1042 MISS:      23426
cpu0_L1D PREFETCH REQUESTED:          0 ISSUED:          0 USEFUL:          0 USELESS:          0
cpu0_L1D AVERAGE MISS LATENCY: 20.75 cycles
cpu0_L1I TOTAL        ACCESS:    5581256 HIT:    4819723 MISS:     761533
cpu0_L1I LOAD         ACCESS:    5581256 HIT:    4819723 MISS:     761533
cpu0_L1I RFO          ACCESS:          0 HIT:          0 MISS:          0
cpu0_L1I PREFETCH     ACCESS:          0 HIT:          0 MISS:          0
cpu0_L1I WRITE        ACCESS:          0 HIT:          0 MISS:          0
cpu0_L1I TRANSLATION  ACCESS:          0 HIT:          0 MISS:          0
cpu0_L1I PREFETCH REQUESTED:          0 ISSUED:          0 USEFUL:          0 USELESS:          0
cpu0_L1I AVERAGE MISS LATENCY: 8.708 cycles
cpu0_L2C TOTAL        ACCESS:    1668166 HIT:    1210853 MISS:     457313
cpu0_L2C LOAD         ACCESS:    1317210 HIT:     913495 MISS:     403715
cpu0_L2C RFO          ACCESS:      88569 HIT:      55982 MISS:      32587
cpu0_L2C PREFETCH     ACCESS:          0 HIT:          0 MISS:          0
cpu0_L2C WRITE        ACCESS:     239044 HIT:     237236 MISS:       1808
cpu0_L2C TRANSLATION  ACCESS:      23343 HIT:       4140 MISS:      19203
cpu0_L2C PREFETCH REQUESTED:          0 ISSUED:          0 USEFUL:          0 USELESS:          0
cpu0_L2C AVERAGE MISS LATENCY: 64.85 cycles
cpu0_STLB TOTAL        ACCESS:     505070 HIT:     482281 MISS:      22789
cpu0_STLB LOAD         ACCESS:     505070 HIT:     482281 MISS:      22789
cpu0_STLB RFO          ACCESS:          0 HIT:          0 MISS:          0
cpu0_STLB PREFETCH     ACCESS:          0 HIT:          0 MISS:          0
cpu0_STLB WRITE        ACCESS:          0 HIT:          0 MISS:          0
cpu0_STLB TRANSLATION  ACCESS:          0 HIT:          0 MISS:          0
cpu0_STLB PREFETCH REQUESTED:          0 ISSUED:          0 USEFUL:          0 USELESS:          0
cpu0_STLB AVERAGE MISS LATENCY: 181.1 cycles

DRAM Statistics

Channel 0 RQ ROW_BUFFER_HIT:      12660
  ROW_BUFFER_MISS:      33373
 AVG DBUS CONGESTED CYCLE: 3.734
WQ ROW_BUFFER_HIT: Channel 0 
  ROW_BUFFER_MISS:        611
  FULL:       1543
