WARNING: physical memory size is smaller than virtual memory size.

*** ChampSim Multicore Out-of-Order Simulator ***
Warmup Instructions: 50000000
Simulation Instructions: 600000000
Number of CPUs: 1
Page size: 4096

Off-chip DRAM Size: 4 GiB Channels: 1 Width: 64-bit Data Race: 3200 MT/s
Heartbeat CPU 0 instructions: 10000000 cycles: 2500061 heartbeat IPC: 4 cumulative IPC: 4 (Simulation time: 00 hr 00 min 34 sec)
Heartbeat CPU 0 instructions: 20000000 cycles: 5000061 heartbeat IPC: 4 cumulative IPC: 4 (Simulation time: 00 hr 01 min 06 sec)
Heartbeat CPU 0 instructions: 30000000 cycles: 7500061 heartbeat IPC: 4 cumulative IPC: 4 (Simulation time: 00 hr 01 min 40 sec)
Heartbeat CPU 0 instructions: 40000000 cycles: 10000061 heartbeat IPC: 4 cumulative IPC: 4 (Simulation time: 00 hr 02 min 15 sec)
Heartbeat CPU 0 instructions: 50000000 cycles: 12500061 heartbeat IPC: 4 cumulative IPC: 4 (Simulation time: 00 hr 02 min 49 sec)
Warmup finished CPU 0 instructions: 50000000 cycles: 12500062 cumulative IPC: 4 (Simulation time: 00 hr 02 min 49 sec)
Warmup complete CPU 0 instructions: 50000000 cycles: 12500062 cumulative IPC: 4 (Simulation time: 00 hr 02 min 49 sec)
Heartbeat CPU 0 instructions: 60000002 cycles: 16911341 heartbeat IPC: 2.267 cumulative IPC: 2.267 (Simulation time: 00 hr 03 min 40 sec)
Heartbeat CPU 0 instructions: 70000003 cycles: 21897820 heartbeat IPC: 2.005 cumulative IPC: 2.128 (Simulation time: 00 hr 04 min 31 sec)
Heartbeat CPU 0 instructions: 80000001 cycles: 27247190 heartbeat IPC: 1.869 cumulative IPC: 2.034 (Simulation time: 00 hr 05 min 23 sec)
Heartbeat CPU 0 instructions: 90000000 cycles: 31546012 heartbeat IPC: 2.326 cumulative IPC: 2.1 (Simulation time: 00 hr 06 min 11 sec)
Heartbeat CPU 0 instructions: 100000003 cycles: 36406147 heartbeat IPC: 2.058 cumulative IPC: 2.092 (Simulation time: 00 hr 06 min 59 sec)
Heartbeat CPU 0 instructions: 110000002 cycles: 41284204 heartbeat IPC: 2.05 cumulative IPC: 2.084 (Simulation time: 00 hr 07 min 49 sec)
Heartbeat CPU 0 instructions: 120000001 cycles: 46280693 heartbeat IPC: 2.001 cumulative IPC: 2.072 (Simulation time: 00 hr 08 min 39 sec)
Heartbeat CPU 0 instructions: 130000003 cycles: 50851474 heartbeat IPC: 2.188 cumulative IPC: 2.086 (Simulation time: 00 hr 09 min 26 sec)
Heartbeat CPU 0 instructions: 140000002 cycles: 55744742 heartbeat IPC: 2.044 cumulative IPC: 2.081 (Simulation time: 00 hr 10 min 12 sec)
Heartbeat CPU 0 instructions: 150000001 cycles: 60416524 heartbeat IPC: 2.141 cumulative IPC: 2.087 (Simulation time: 00 hr 10 min 55 sec)
Heartbeat CPU 0 instructions: 160000000 cycles: 65057180 heartbeat IPC: 2.155 cumulative IPC: 2.093 (Simulation time: 00 hr 11 min 38 sec)
Heartbeat CPU 0 instructions: 170000000 cycles: 70394497 heartbeat IPC: 1.874 cumulative IPC: 2.073 (Simulation time: 00 hr 12 min 23 sec)
Heartbeat CPU 0 instructions: 180000001 cycles: 76116472 heartbeat IPC: 1.748 cumulative IPC: 2.043 (Simulation time: 00 hr 13 min 11 sec)
Heartbeat CPU 0 instructions: 190000002 cycles: 80593267 heartbeat IPC: 2.234 cumulative IPC: 2.056 (Simulation time: 00 hr 13 min 53 sec)
Heartbeat CPU 0 instructions: 200000002 cycles: 85503685 heartbeat IPC: 2.036 cumulative IPC: 2.055 (Simulation time: 00 hr 14 min 36 sec)
Heartbeat CPU 0 instructions: 210000000 cycles: 90509961 heartbeat IPC: 1.997 cumulative IPC: 2.051 (Simulation time: 00 hr 15 min 20 sec)
Heartbeat CPU 0 instructions: 220000001 cycles: 95435925 heartbeat IPC: 2.03 cumulative IPC: 2.05 (Simulation time: 00 hr 16 min 03 sec)
Heartbeat CPU 0 instructions: 230000002 cycles: 100684992 heartbeat IPC: 1.905 cumulative IPC: 2.041 (Simulation time: 00 hr 16 min 48 sec)
Heartbeat CPU 0 instructions: 240000001 cycles: 105652106 heartbeat IPC: 2.013 cumulative IPC: 2.04 (Simulation time: 00 hr 17 min 31 sec)
Heartbeat CPU 0 instructions: 250000003 cycles: 110840378 heartbeat IPC: 1.927 cumulative IPC: 2.034 (Simulation time: 00 hr 18 min 15 sec)
Heartbeat CPU 0 instructions: 260000001 cycles: 115702940 heartbeat IPC: 2.057 cumulative IPC: 2.035 (Simulation time: 00 hr 18 min 58 sec)
Heartbeat CPU 0 instructions: 270000000 cycles: 123412770 heartbeat IPC: 1.297 cumulative IPC: 1.984 (Simulation time: 00 hr 19 min 56 sec)
Heartbeat CPU 0 instructions: 280000000 cycles: 134300678 heartbeat IPC: 0.9185 cumulative IPC: 1.888 (Simulation time: 00 hr 21 min 11 sec)
Heartbeat CPU 0 instructions: 290000001 cycles: 143603266 heartbeat IPC: 1.075 cumulative IPC: 1.831 (Simulation time: 00 hr 22 min 20 sec)
Heartbeat CPU 0 instructions: 300000003 cycles: 150985167 heartbeat IPC: 1.355 cumulative IPC: 1.805 (Simulation time: 00 hr 23 min 21 sec)
Heartbeat CPU 0 instructions: 310000004 cycles: 161312827 heartbeat IPC: 0.9683 cumulative IPC: 1.747 (Simulation time: 00 hr 24 min 37 sec)
Heartbeat CPU 0 instructions: 320000004 cycles: 166891313 heartbeat IPC: 1.793 cumulative IPC: 1.749 (Simulation time: 00 hr 25 min 26 sec)
Heartbeat CPU 0 instructions: 330000000 cycles: 172112034 heartbeat IPC: 1.915 cumulative IPC: 1.754 (Simulation time: 00 hr 26 min 11 sec)
Heartbeat CPU 0 instructions: 340000001 cycles: 176847578 heartbeat IPC: 2.112 cumulative IPC: 1.765 (Simulation time: 00 hr 26 min 54 sec)
Heartbeat CPU 0 instructions: 350000000 cycles: 181764073 heartbeat IPC: 2.034 cumulative IPC: 1.772 (Simulation time: 00 hr 27 min 38 sec)
Heartbeat CPU 0 instructions: 360000003 cycles: 186480631 heartbeat IPC: 2.12 cumulative IPC: 1.782 (Simulation time: 00 hr 28 min 21 sec)
Heartbeat CPU 0 instructions: 370000001 cycles: 191188496 heartbeat IPC: 2.124 cumulative IPC: 1.791 (Simulation time: 00 hr 29 min 04 sec)
Heartbeat CPU 0 instructions: 380000004 cycles: 196178443 heartbeat IPC: 2.004 cumulative IPC: 1.797 (Simulation time: 00 hr 29 min 49 sec)
Heartbeat CPU 0 instructions: 390000002 cycles: 201083812 heartbeat IPC: 2.039 cumulative IPC: 1.803 (Simulation time: 00 hr 30 min 34 sec)
Heartbeat CPU 0 instructions: 400000000 cycles: 206078683 heartbeat IPC: 2.002 cumulative IPC: 1.808 (Simulation time: 00 hr 31 min 19 sec)
Heartbeat CPU 0 instructions: 410000000 cycles: 212177855 heartbeat IPC: 1.64 cumulative IPC: 1.803 (Simulation time: 00 hr 32 min 10 sec)
Heartbeat CPU 0 instructions: 420000001 cycles: 219543716 heartbeat IPC: 1.358 cumulative IPC: 1.787 (Simulation time: 00 hr 33 min 08 sec)
Heartbeat CPU 0 instructions: 430000000 cycles: 226109966 heartbeat IPC: 1.523 cumulative IPC: 1.779 (Simulation time: 00 hr 34 min 04 sec)
Heartbeat CPU 0 instructions: 440000002 cycles: 232573447 heartbeat IPC: 1.547 cumulative IPC: 1.772 (Simulation time: 00 hr 34 min 59 sec)
Heartbeat CPU 0 instructions: 450000000 cycles: 238908016 heartbeat IPC: 1.579 cumulative IPC: 1.767 (Simulation time: 00 hr 35 min 54 sec)
Heartbeat CPU 0 instructions: 460000002 cycles: 246564874 heartbeat IPC: 1.306 cumulative IPC: 1.752 (Simulation time: 00 hr 36 min 56 sec)
Heartbeat CPU 0 instructions: 470000000 cycles: 253407182 heartbeat IPC: 1.461 cumulative IPC: 1.743 (Simulation time: 00 hr 37 min 52 sec)
Heartbeat CPU 0 instructions: 480000000 cycles: 258340644 heartbeat IPC: 2.027 cumulative IPC: 1.749 (Simulation time: 00 hr 38 min 37 sec)
Heartbeat CPU 0 instructions: 490000001 cycles: 263214983 heartbeat IPC: 2.052 cumulative IPC: 1.755 (Simulation time: 00 hr 39 min 21 sec)
Heartbeat CPU 0 instructions: 500000002 cycles: 268084107 heartbeat IPC: 2.054 cumulative IPC: 1.761 (Simulation time: 00 hr 40 min 05 sec)
Heartbeat CPU 0 instructions: 510000000 cycles: 273038816 heartbeat IPC: 2.018 cumulative IPC: 1.766 (Simulation time: 00 hr 40 min 49 sec)
Heartbeat CPU 0 instructions: 520000000 cycles: 278047710 heartbeat IPC: 1.996 cumulative IPC: 1.77 (Simulation time: 00 hr 41 min 33 sec)
Heartbeat CPU 0 instructions: 530000001 cycles: 285069211 heartbeat IPC: 1.424 cumulative IPC: 1.761 (Simulation time: 00 hr 42 min 30 sec)
Heartbeat CPU 0 instructions: 540000000 cycles: 291967182 heartbeat IPC: 1.45 cumulative IPC: 1.753 (Simulation time: 00 hr 43 min 28 sec)
Heartbeat CPU 0 instructions: 550000002 cycles: 299551415 heartbeat IPC: 1.319 cumulative IPC: 1.742 (Simulation time: 00 hr 44 min 28 sec)
Heartbeat CPU 0 instructions: 560000004 cycles: 303967309 heartbeat IPC: 2.265 cumulative IPC: 1.75 (Simulation time: 00 hr 45 min 10 sec)
Heartbeat CPU 0 instructions: 570000001 cycles: 308322993 heartbeat IPC: 2.296 cumulative IPC: 1.758 (Simulation time: 00 hr 45 min 51 sec)
Heartbeat CPU 0 instructions: 580000003 cycles: 312459839 heartbeat IPC: 2.417 cumulative IPC: 1.767 (Simulation time: 00 hr 46 min 31 sec)
Heartbeat CPU 0 instructions: 590000001 cycles: 317270978 heartbeat IPC: 2.079 cumulative IPC: 1.772 (Simulation time: 00 hr 47 min 12 sec)
Heartbeat CPU 0 instructions: 600000003 cycles: 321863354 heartbeat IPC: 2.178 cumulative IPC: 1.778 (Simulation time: 00 hr 47 min 54 sec)
Heartbeat CPU 0 instructions: 610000001 cycles: 326658806 heartbeat IPC: 2.085 cumulative IPC: 1.783 (Simulation time: 00 hr 48 min 35 sec)
Heartbeat CPU 0 instructions: 620000000 cycles: 331674129 heartbeat IPC: 1.994 cumulative IPC: 1.786 (Simulation time: 00 hr 49 min 15 sec)
Heartbeat CPU 0 instructions: 630000002 cycles: 335883990 heartbeat IPC: 2.375 cumulative IPC: 1.794 (Simulation time: 00 hr 49 min 50 sec)
Heartbeat CPU 0 instructions: 640000004 cycles: 341155180 heartbeat IPC: 1.897 cumulative IPC: 1.795 (Simulation time: 00 hr 50 min 29 sec)
Heartbeat CPU 0 instructions: 650000001 cycles: 345896647 heartbeat IPC: 2.109 cumulative IPC: 1.8 (Simulation time: 00 hr 51 min 07 sec)
Simulation finished CPU 0 instructions: 600000001 cycles: 333396586 cumulative IPC: 1.8 (Simulation time: 00 hr 51 min 07 sec)
Simulation complete CPU 0 instructions: 600000001 cycles: 333396586 cumulative IPC: 1.8 (Simulation time: 00 hr 51 min 07 sec)

ChampSim completed all CPUs

=== Simulation ===
CPU 0 runs traces/400.perlbench-50B.champsimtrace.xz
Region of Interest Statistics

CPU 0 cumulative IPC: 1.8 instructions: 600000001 cycles: 333396586
CPU 0 Branch Prediction Accuracy: 93.83% MPKI: 12.71 Average ROB Occupancy at Mispredict: 29.2
Branch type MPKI
BRANCH_DIRECT_JUMP: 0.0176
BRANCH_INDIRECT: 0.38
BRANCH_CONDITIONAL: 11.9
BRANCH_DIRECT_CALL: 0.0067
BRANCH_INDIRECT_CALL: 0.431
BRANCH_RETURN: 0.0161

LLC TOTAL        ACCESS:     784913 HIT:     662116 MISS:     122797
LLC LOAD         ACCESS:     587217 HIT:     483104 MISS:     104113
LLC RFO          ACCESS:      47459 HIT:      37918 MISS:       9541
LLC PREFETCH     ACCESS:          0 HIT:          0 MISS:          0
LLC WRITE        ACCESS:     128122 HIT:     128122 MISS:          0
LLC TRANSLATION  ACCESS:      22115 HIT:      12972 MISS:       9143
LLC PREFETCH REQUESTED:          0 ISSUED:          0 USEFUL:          0 USELESS:          0
LLC AVERAGE MISS LATENCY: 469.3 cycles
cpu0_DTLB TOTAL        ACCESS:  156789233 HIT:  155488932 MISS:    1300301
cpu0_DTLB LOAD         ACCESS:  156789233 HIT:  155488932 MISS:    1300301
cpu0_DTLB RFO          ACCESS:          0 HIT:          0 MISS:          0
cpu0_DTLB PREFETCH     ACCESS:          0 HIT:          0 MISS:          0
cpu0_DTLB WRITE        ACCESS:          0 HIT:          0 MISS:          0
cpu0_DTLB TRANSLATION  ACCESS:          0 HIT:          0 MISS:          0
cpu0_DTLB PREFETCH REQUESTED:          0 ISSUED:          0 USEFUL:          0 USELESS:          0
cpu0_DTLB AVERAGE MISS LATENCY: 9.969 cycles
cpu0_ITLB TOTAL        ACCESS:    8932437 HIT:    8733845 MISS:     198592
cpu0_ITLB LOAD         ACCESS:    8932437 HIT:    8733845 MISS:     198592
cpu0_ITLB RFO          ACCESS:          0 HIT:          0 MISS:          0
cpu0_ITLB PREFETCH     ACCESS:          0 HIT:          0 MISS:          0
cpu0_ITLB WRITE        ACCESS:          0 HIT:          0 MISS:          0
cpu0_ITLB TRANSLATION  ACCESS:          0 HIT:          0 MISS:          0
cpu0_ITLB PREFETCH REQUESTED:          0 ISSUED:          0 USEFUL:          0 USELESS:          0
cpu0_ITLB AVERAGE MISS LATENCY: 2.555 cycles
cpu0_L1D TOTAL        ACCESS:  203649241 HIT:  200008131 MISS:    3641110
cpu0_L1D LOAD         ACCESS:  117972394 HIT:  114973056 MISS:    2999338
cpu0_L1D RFO          ACCESS:          0 HIT:          0 MISS:          0
cpu0_L1D PREFETCH     ACCESS:          0 HIT:          0 MISS:          0
cpu0_L1D WRITE        ACCESS:   85648299 HIT:   85033665 MISS:     614634
cpu0_L1D TRANSLATION  ACCESS:      28548 HIT:       1410 MISS:      27138
cpu0_L1D PREFETCH REQUESTED:          0 ISSUED:          0 USEFUL:          0 USELESS:          0
cpu0_L1D AVERAGE MISS LATENCY: 22.52 cycles
cpu0_L1I TOTAL        ACCESS:   10371101 HIT:    8573614 MISS:    1797487
cpu0_L1I LOAD         ACCESS:   10371101 HIT:    8573614 MISS:    1797487
cpu0_L1I RFO          ACCESS:          0 HIT:          0 MISS:          0
cpu0_L1I PREFETCH     ACCESS:          0 HIT:          0 MISS:          0
cpu0_L1I WRITE        ACCESS:          0 HIT:          0 MISS:          0
cpu0_L1I TRANSLATION  ACCESS:          0 HIT:          0 MISS:          0
cpu0_L1I PREFETCH REQUESTED:          0 ISSUED:          0 USEFUL:          0 USELESS:          0
cpu0_L1I AVERAGE MISS LATENCY: 9.188 cycles
cpu0_L2C TOTAL        ACCESS:    3837243 HIT:    3177219 MISS:     660024
cpu0_L2C LOAD         ACCESS:    3106470 HIT:    2519253 MISS:     587217
cpu0_L2C RFO          ACCESS:     191762 HIT:     144303 MISS:      47459
cpu0_L2C PREFETCH     ACCESS:          0 HIT:          0 MISS:          0
cpu0_L2C WRITE        ACCESS:     511950 HIT:     508717 MISS:       3233
cpu0_L2C TRANSLATION  ACCESS:      27061 HIT:       4946 MISS:      22115
cpu0_L2C PREFETCH REQUESTED:          0 ISSUED:          0 USEFUL:          0 USELESS:          0
cpu0_L2C AVERAGE MISS LATENCY: 107.4 cycles
cpu0_STLB TOTAL        ACCESS:    1009189 HIT:     982494 MISS:      26695
cpu0_STLB LOAD         ACCESS:    1009189 HIT:     982494 MISS:      26695
cpu0_STLB RFO          ACCESS:          0 HIT:          0 MISS:          0
cpu0_STLB PREFETCH     ACCESS:          0 HIT:          0 MISS:          0
cpu0_STLB WRITE        ACCESS:          0 HIT:          0 MISS:          0
cpu0_STLB TRANSLATION  ACCESS:          0 HIT:          0 MISS:          0
cpu0_STLB PREFETCH REQUESTED:          0 ISSUED:          0 USEFUL:          0 USELESS:          0
cpu0_STLB AVERAGE MISS LATENCY: 256.9 cycles

DRAM Statistics

Channel 0 RQ ROW_BUFFER_HIT:      36562
  ROW_BUFFER_MISS:      86235
 AVG DBUS CONGESTED CYCLE: 3.701
WQ ROW_BUFFER_HIT: Channel 0 
  ROW_BUFFER_MISS:       1101
  FULL:       1329
