WARNING: physical memory size is smaller than virtual memory size.

*** ChampSim Multicore Out-of-Order Simulator ***
Warmup Instructions: 50000000
Simulation Instructions: 600000000
Number of CPUs: 1
Page size: 4096

Off-chip DRAM Size: 4 GiB Channels: 1 Width: 64-bit Data Race: 3200 MT/s
Heartbeat CPU 0 instructions: 10000000 cycles: 2500061 heartbeat IPC: 4 cumulative IPC: 4 (Simulation time: 00 hr 00 min 37 sec)
Heartbeat CPU 0 instructions: 20000000 cycles: 5000061 heartbeat IPC: 4 cumulative IPC: 4 (Simulation time: 00 hr 01 min 09 sec)
Heartbeat CPU 0 instructions: 30000000 cycles: 7500061 heartbeat IPC: 4 cumulative IPC: 4 (Simulation time: 00 hr 01 min 41 sec)
Heartbeat CPU 0 instructions: 40000000 cycles: 10000061 heartbeat IPC: 4 cumulative IPC: 4 (Simulation time: 00 hr 02 min 13 sec)
Heartbeat CPU 0 instructions: 50000000 cycles: 12500061 heartbeat IPC: 4 cumulative IPC: 4 (Simulation time: 00 hr 02 min 46 sec)
Warmup finished CPU 0 instructions: 50000000 cycles: 12500062 cumulative IPC: 4 (Simulation time: 00 hr 02 min 46 sec)
Warmup complete CPU 0 instructions: 50000000 cycles: 12500062 cumulative IPC: 4 (Simulation time: 00 hr 02 min 46 sec)
Heartbeat CPU 0 instructions: 60000002 cycles: 16897168 heartbeat IPC: 2.274 cumulative IPC: 2.274 (Simulation time: 00 hr 03 min 35 sec)
Heartbeat CPU 0 instructions: 70000003 cycles: 21874323 heartbeat IPC: 2.009 cumulative IPC: 2.134 (Simulation time: 00 hr 04 min 25 sec)
Heartbeat CPU 0 instructions: 80000001 cycles: 27217652 heartbeat IPC: 1.871 cumulative IPC: 2.038 (Simulation time: 00 hr 05 min 17 sec)
Heartbeat CPU 0 instructions: 90000000 cycles: 31512174 heartbeat IPC: 2.329 cumulative IPC: 2.104 (Simulation time: 00 hr 06 min 04 sec)
Heartbeat CPU 0 instructions: 100000003 cycles: 36360283 heartbeat IPC: 2.063 cumulative IPC: 2.096 (Simulation time: 00 hr 06 min 51 sec)
Heartbeat CPU 0 instructions: 110000002 cycles: 41223823 heartbeat IPC: 2.056 cumulative IPC: 2.089 (Simulation time: 00 hr 07 min 36 sec)
Heartbeat CPU 0 instructions: 120000001 cycles: 46216185 heartbeat IPC: 2.003 cumulative IPC: 2.076 (Simulation time: 00 hr 08 min 23 sec)
Heartbeat CPU 0 instructions: 130000003 cycles: 50774631 heartbeat IPC: 2.194 cumulative IPC: 2.09 (Simulation time: 00 hr 09 min 07 sec)
Heartbeat CPU 0 instructions: 140000002 cycles: 55657500 heartbeat IPC: 2.048 cumulative IPC: 2.085 (Simulation time: 00 hr 09 min 54 sec)
Heartbeat CPU 0 instructions: 150000001 cycles: 60315882 heartbeat IPC: 2.147 cumulative IPC: 2.091 (Simulation time: 00 hr 10 min 42 sec)
Heartbeat CPU 0 instructions: 160000000 cycles: 64944965 heartbeat IPC: 2.16 cumulative IPC: 2.097 (Simulation time: 00 hr 11 min 31 sec)
Heartbeat CPU 0 instructions: 170000000 cycles: 70269944 heartbeat IPC: 1.878 cumulative IPC: 2.077 (Simulation time: 00 hr 12 min 23 sec)
Heartbeat CPU 0 instructions: 180000001 cycles: 75985244 heartbeat IPC: 1.75 cumulative IPC: 2.048 (Simulation time: 00 hr 13 min 17 sec)
Heartbeat CPU 0 instructions: 190000002 cycles: 80446549 heartbeat IPC: 2.241 cumulative IPC: 2.06 (Simulation time: 00 hr 14 min 05 sec)
Heartbeat CPU 0 instructions: 200000002 cycles: 85337187 heartbeat IPC: 2.045 cumulative IPC: 2.059 (Simulation time: 00 hr 14 min 55 sec)
Heartbeat CPU 0 instructions: 210000000 cycles: 90334775 heartbeat IPC: 2.001 cumulative IPC: 2.056 (Simulation time: 00 hr 15 min 46 sec)
Heartbeat CPU 0 instructions: 220000001 cycles: 95256096 heartbeat IPC: 2.032 cumulative IPC: 2.054 (Simulation time: 00 hr 16 min 36 sec)
Heartbeat CPU 0 instructions: 230000002 cycles: 100493367 heartbeat IPC: 1.909 cumulative IPC: 2.046 (Simulation time: 00 hr 17 min 28 sec)
Heartbeat CPU 0 instructions: 240000001 cycles: 105450230 heartbeat IPC: 2.017 cumulative IPC: 2.044 (Simulation time: 00 hr 18 min 18 sec)
Heartbeat CPU 0 instructions: 250000003 cycles: 110619443 heartbeat IPC: 1.935 cumulative IPC: 2.038 (Simulation time: 00 hr 19 min 08 sec)
Heartbeat CPU 0 instructions: 260000001 cycles: 115478521 heartbeat IPC: 2.058 cumulative IPC: 2.039 (Simulation time: 00 hr 19 min 58 sec)
Heartbeat CPU 0 instructions: 270000000 cycles: 122730418 heartbeat IPC: 1.379 cumulative IPC: 1.996 (Simulation time: 00 hr 21 min 02 sec)
Heartbeat CPU 0 instructions: 280000000 cycles: 132785131 heartbeat IPC: 0.9946 cumulative IPC: 1.912 (Simulation time: 00 hr 22 min 25 sec)
Heartbeat CPU 0 instructions: 290000001 cycles: 141452277 heartbeat IPC: 1.154 cumulative IPC: 1.861 (Simulation time: 00 hr 23 min 35 sec)
Heartbeat CPU 0 instructions: 300000003 cycles: 148704672 heartbeat IPC: 1.379 cumulative IPC: 1.835 (Simulation time: 00 hr 24 min 39 sec)
Heartbeat CPU 0 instructions: 310000004 cycles: 158630132 heartbeat IPC: 1.008 cumulative IPC: 1.779 (Simulation time: 00 hr 25 min 56 sec)
Heartbeat CPU 0 instructions: 320000004 cycles: 164163992 heartbeat IPC: 1.807 cumulative IPC: 1.78 (Simulation time: 00 hr 26 min 50 sec)
Heartbeat CPU 0 instructions: 330000000 cycles: 169372492 heartbeat IPC: 1.92 cumulative IPC: 1.785 (Simulation time: 00 hr 27 min 39 sec)
Heartbeat CPU 0 instructions: 340000001 cycles: 174152186 heartbeat IPC: 2.092 cumulative IPC: 1.794 (Simulation time: 00 hr 28 min 25 sec)
Heartbeat CPU 0 instructions: 350000000 cycles: 179144967 heartbeat IPC: 2.003 cumulative IPC: 1.8 (Simulation time: 00 hr 29 min 13 sec)
Heartbeat CPU 0 instructions: 360000003 cycles: 183939703 heartbeat IPC: 2.086 cumulative IPC: 1.808 (Simulation time: 00 hr 30 min 01 sec)
Heartbeat CPU 0 instructions: 370000001 cycles: 188722746 heartbeat IPC: 2.091 cumulative IPC: 1.816 (Simulation time: 00 hr 30 min 48 sec)
Heartbeat CPU 0 instructions: 380000004 cycles: 193768323 heartbeat IPC: 1.982 cumulative IPC: 1.821 (Simulation time: 00 hr 31 min 36 sec)
Heartbeat CPU 0 instructions: 390000002 cycles: 198756075 heartbeat IPC: 2.005 cumulative IPC: 1.825 (Simulation time: 00 hr 32 min 24 sec)
Heartbeat CPU 0 instructions: 400000000 cycles: 203827421 heartbeat IPC: 1.972 cumulative IPC: 1.829 (Simulation time: 00 hr 33 min 12 sec)
Heartbeat CPU 0 instructions: 410000000 cycles: 209997667 heartbeat IPC: 1.621 cumulative IPC: 1.823 (Simulation time: 00 hr 34 min 08 sec)
Heartbeat CPU 0 instructions: 420000001 cycles: 217645405 heartbeat IPC: 1.308 cumulative IPC: 1.804 (Simulation time: 00 hr 35 min 12 sec)
Heartbeat CPU 0 instructions: 430000000 cycles: 224174913 heartbeat IPC: 1.532 cumulative IPC: 1.795 (Simulation time: 00 hr 36 min 13 sec)
Heartbeat CPU 0 instructions: 440000002 cycles: 230611416 heartbeat IPC: 1.554 cumulative IPC: 1.788 (Simulation time: 00 hr 37 min 11 sec)
Heartbeat CPU 0 instructions: 450000001 cycles: 236901800 heartbeat IPC: 1.59 cumulative IPC: 1.783 (Simulation time: 00 hr 38 min 10 sec)
Heartbeat CPU 0 instructions: 460000002 cycles: 244738376 heartbeat IPC: 1.276 cumulative IPC: 1.765 (Simulation time: 00 hr 39 min 16 sec)
Heartbeat CPU 0 instructions: 470000000 cycles: 252115196 heartbeat IPC: 1.356 cumulative IPC: 1.753 (Simulation time: 00 hr 40 min 20 sec)
Heartbeat CPU 0 instructions: 480000000 cycles: 257145117 heartbeat IPC: 1.988 cumulative IPC: 1.758 (Simulation time: 00 hr 41 min 08 sec)
Heartbeat CPU 0 instructions: 490000001 cycles: 262185590 heartbeat IPC: 1.984 cumulative IPC: 1.762 (Simulation time: 00 hr 41 min 58 sec)
Heartbeat CPU 0 instructions: 500000002 cycles: 267212012 heartbeat IPC: 1.989 cumulative IPC: 1.767 (Simulation time: 00 hr 42 min 49 sec)
Heartbeat CPU 0 instructions: 510000000 cycles: 272329747 heartbeat IPC: 1.954 cumulative IPC: 1.77 (Simulation time: 00 hr 43 min 41 sec)
Heartbeat CPU 0 instructions: 520000000 cycles: 277502943 heartbeat IPC: 1.933 cumulative IPC: 1.774 (Simulation time: 00 hr 44 min 34 sec)
Heartbeat CPU 0 instructions: 530000001 cycles: 284944617 heartbeat IPC: 1.344 cumulative IPC: 1.762 (Simulation time: 00 hr 45 min 44 sec)
Heartbeat CPU 0 instructions: 540000000 cycles: 292170685 heartbeat IPC: 1.384 cumulative IPC: 1.752 (Simulation time: 00 hr 46 min 54 sec)
Heartbeat CPU 0 instructions: 550000002 cycles: 300452366 heartbeat IPC: 1.207 cumulative IPC: 1.736 (Simulation time: 00 hr 48 min 06 sec)
Heartbeat CPU 0 instructions: 560000004 cycles: 304917296 heartbeat IPC: 2.24 cumulative IPC: 1.744 (Simulation time: 00 hr 48 min 55 sec)
Heartbeat CPU 0 instructions: 570000001 cycles: 309287015 heartbeat IPC: 2.288 cumulative IPC: 1.752 (Simulation time: 00 hr 49 min 44 sec)
Heartbeat CPU 0 instructions: 580000003 cycles: 313449847 heartbeat IPC: 2.402 cumulative IPC: 1.761 (Simulation time: 00 hr 50 min 31 sec)
Heartbeat CPU 0 instructions: 590000001 cycles: 318287283 heartbeat IPC: 2.067 cumulative IPC: 1.766 (Simulation time: 00 hr 51 min 26 sec)
Heartbeat CPU 0 instructions: 600000003 cycles: 322891305 heartbeat IPC: 2.172 cumulative IPC: 1.772 (Simulation time: 00 hr 52 min 16 sec)
Heartbeat CPU 0 instructions: 610000001 cycles: 327707000 heartbeat IPC: 2.077 cumulative IPC: 1.777 (Simulation time: 00 hr 53 min 04 sec)
Heartbeat CPU 0 instructions: 620000000 cycles: 332733908 heartbeat IPC: 1.989 cumulative IPC: 1.78 (Simulation time: 00 hr 53 min 57 sec)
Heartbeat CPU 0 instructions: 630000002 cycles: 336947613 heartbeat IPC: 2.373 cumulative IPC: 1.788 (Simulation time: 00 hr 54 min 41 sec)
Heartbeat CPU 0 instructions: 640000004 cycles: 342228206 heartbeat IPC: 1.894 cumulative IPC: 1.789 (Simulation time: 00 hr 55 min 31 sec)
Heartbeat CPU 0 instructions: 650000001 cycles: 346973746 heartbeat IPC: 2.107 cumulative IPC: 1.794 (Simulation time: 00 hr 56 min 18 sec)
Simulation finished CPU 0 instructions: 600000001 cycles: 334473685 cumulative IPC: 1.794 (Simulation time: 00 hr 56 min 18 sec)
Simulation complete CPU 0 instructions: 600000001 cycles: 334473685 cumulative IPC: 1.794 (Simulation time: 00 hr 56 min 18 sec)

ChampSim completed all CPUs

=== Simulation ===
CPU 0 runs traces/400.perlbench-50B.champsimtrace.xz
Region of Interest Statistics

CPU 0 cumulative IPC: 1.794 instructions: 600000001 cycles: 334473685
CPU 0 Branch Prediction Accuracy: 93.83% MPKI: 12.71 Average ROB Occupancy at Mispredict: 29.14
Branch type MPKI
BRANCH_DIRECT_JUMP: 0.0176
BRANCH_INDIRECT: 0.38
BRANCH_CONDITIONAL: 11.9
BRANCH_DIRECT_CALL: 0.0067
BRANCH_INDIRECT_CALL: 0.431
BRANCH_RETURN: 0.0161

LLC TOTAL        ACCESS:    1371228 HIT:    1151457 MISS:     219771
LLC LOAD         ACCESS:     586428 HIT:     489118 MISS:      97310
LLC RFO          ACCESS:      48052 HIT:      37799 MISS:      10253
LLC PREFETCH     ACCESS:     586428 HIT:     483817 MISS:     102611
LLC WRITE        ACCESS:     128217 HIT:     128204 MISS:         13
LLC TRANSLATION  ACCESS:      22103 HIT:      12519 MISS:       9584
LLC PREFETCH REQUESTED:     586428 ISSUED:     586428 USEFUL:      32925 USELESS:      20089
LLC AVERAGE MISS LATENCY: 460.8 cycles
cpu0_DTLB TOTAL        ACCESS:  156797960 HIT:  155497160 MISS:    1300800
cpu0_DTLB LOAD         ACCESS:  156797960 HIT:  155497160 MISS:    1300800
cpu0_DTLB RFO          ACCESS:          0 HIT:          0 MISS:          0
cpu0_DTLB PREFETCH     ACCESS:          0 HIT:          0 MISS:          0
cpu0_DTLB WRITE        ACCESS:          0 HIT:          0 MISS:          0
cpu0_DTLB TRANSLATION  ACCESS:          0 HIT:          0 MISS:          0
cpu0_DTLB PREFETCH REQUESTED:          0 ISSUED:          0 USEFUL:          0 USELESS:          0
cpu0_DTLB AVERAGE MISS LATENCY: 10.37 cycles
cpu0_ITLB TOTAL        ACCESS:    8932299 HIT:    8733693 MISS:     198606
cpu0_ITLB LOAD         ACCESS:    8932299 HIT:    8733693 MISS:     198606
cpu0_ITLB RFO          ACCESS:          0 HIT:          0 MISS:          0
cpu0_ITLB PREFETCH     ACCESS:          0 HIT:          0 MISS:          0
cpu0_ITLB WRITE        ACCESS:          0 HIT:          0 MISS:          0
cpu0_ITLB TRANSLATION  ACCESS:          0 HIT:          0 MISS:          0
cpu0_ITLB PREFETCH REQUESTED:          0 ISSUED:          0 USEFUL:          0 USELESS:          0
cpu0_ITLB AVERAGE MISS LATENCY: 2.671 cycles
cpu0_L1D TOTAL        ACCESS:  203661729 HIT:  200020739 MISS:    3640990
cpu0_L1D LOAD         ACCESS:  117984227 HIT:  114987270 MISS:    2996957
cpu0_L1D RFO          ACCESS:          0 HIT:          0 MISS:          0
cpu0_L1D PREFETCH     ACCESS:          0 HIT:          0 MISS:          0
cpu0_L1D WRITE        ACCESS:   85648959 HIT:   85032060 MISS:     616899
cpu0_L1D TRANSLATION  ACCESS:      28543 HIT:       1409 MISS:      27134
cpu0_L1D PREFETCH REQUESTED:          0 ISSUED:          0 USEFUL:          0 USELESS:          0
cpu0_L1D AVERAGE MISS LATENCY: 23.1 cycles
cpu0_L1I TOTAL        ACCESS:   10371111 HIT:    8573971 MISS:    1797140
cpu0_L1I LOAD         ACCESS:   10371111 HIT:    8573971 MISS:    1797140
cpu0_L1I RFO          ACCESS:          0 HIT:          0 MISS:          0
cpu0_L1I PREFETCH     ACCESS:          0 HIT:          0 MISS:          0
cpu0_L1I WRITE        ACCESS:          0 HIT:          0 MISS:          0
cpu0_L1I TRANSLATION  ACCESS:          0 HIT:          0 MISS:          0
cpu0_L1I PREFETCH REQUESTED:          0 ISSUED:          0 USEFUL:          0 USELESS:          0
cpu0_L1I AVERAGE MISS LATENCY: 8.916 cycles
cpu0_L2C TOTAL        ACCESS:    3837198 HIT:    3177231 MISS:     659967
cpu0_L2C LOAD         ACCESS:    3106461 HIT:    2520033 MISS:     586428
cpu0_L2C RFO          ACCESS:     191785 HIT:     143733 MISS:      48052
cpu0_L2C PREFETCH     ACCESS:          0 HIT:          0 MISS:          0
cpu0_L2C WRITE        ACCESS:     511896 HIT:     508512 MISS:       3384
cpu0_L2C TRANSLATION  ACCESS:      27056 HIT:       4953 MISS:      22103
cpu0_L2C PREFETCH REQUESTED:          0 ISSUED:          0 USEFUL:          0 USELESS:          0
cpu0_L2C AVERAGE MISS LATENCY: 109.8 cycles
cpu0_STLB TOTAL        ACCESS:    1009175 HIT:     982483 MISS:      26692
cpu0_STLB LOAD         ACCESS:    1009175 HIT:     982483 MISS:      26692
cpu0_STLB RFO          ACCESS:          0 HIT:          0 MISS:          0
cpu0_STLB PREFETCH     ACCESS:          0 HIT:          0 MISS:          0
cpu0_STLB WRITE        ACCESS:          0 HIT:          0 MISS:          0
cpu0_STLB TRANSLATION  ACCESS:          0 HIT:          0 MISS:          0
cpu0_STLB PREFETCH REQUESTED:          0 ISSUED:          0 USEFUL:          0 USELESS:          0
cpu0_STLB AVERAGE MISS LATENCY: 278.2 cycles

DRAM Statistics

Channel 0 RQ ROW_BUFFER_HIT:      52205
  ROW_BUFFER_MISS:     132749
 AVG DBUS CONGESTED CYCLE: 3.8
WQ ROW_BUFFER_HIT: Channel 0 
  ROW_BUFFER_MISS:       3200
  FULL:       4111
