WARNING: physical memory size is smaller than virtual memory size.

*** ChampSim Multicore Out-of-Order Simulator ***
Warmup Instructions: 50000000
Simulation Instructions: 600000000
Number of CPUs: 1
Page size: 4096

CPU 0 Tage branch predictor
Off-chip DRAM Size: 4 GiB Channels: 1 Width: 64-bit Data Race: 3200 MT/s
Heartbeat CPU 0 instructions: 10000000 cycles: 2500061 heartbeat IPC: 4 cumulative IPC: 4 (Simulation time: 00 hr 00 min 39 sec)
Heartbeat CPU 0 instructions: 20000000 cycles: 5000061 heartbeat IPC: 4 cumulative IPC: 4 (Simulation time: 00 hr 01 min 18 sec)
Heartbeat CPU 0 instructions: 30000000 cycles: 7500061 heartbeat IPC: 4 cumulative IPC: 4 (Simulation time: 00 hr 01 min 55 sec)
Heartbeat CPU 0 instructions: 40000000 cycles: 10000061 heartbeat IPC: 4 cumulative IPC: 4 (Simulation time: 00 hr 02 min 32 sec)
Heartbeat CPU 0 instructions: 50000000 cycles: 12500061 heartbeat IPC: 4 cumulative IPC: 4 (Simulation time: 00 hr 03 min 08 sec)
Warmup finished CPU 0 instructions: 50000000 cycles: 12500062 cumulative IPC: 4 (Simulation time: 00 hr 03 min 08 sec)
Warmup complete CPU 0 instructions: 50000000 cycles: 12500062 cumulative IPC: 4 (Simulation time: 00 hr 03 min 08 sec)
Heartbeat CPU 0 instructions: 60000004 cycles: 15504489 heartbeat IPC: 3.328 cumulative IPC: 3.328 (Simulation time: 00 hr 03 min 52 sec)
Heartbeat CPU 0 instructions: 70000003 cycles: 18370762 heartbeat IPC: 3.489 cumulative IPC: 3.407 (Simulation time: 00 hr 04 min 34 sec)
Heartbeat CPU 0 instructions: 80000002 cycles: 21382300 heartbeat IPC: 3.321 cumulative IPC: 3.378 (Simulation time: 00 hr 05 min 17 sec)
Heartbeat CPU 0 instructions: 90000000 cycles: 24100329 heartbeat IPC: 3.679 cumulative IPC: 3.448 (Simulation time: 00 hr 05 min 58 sec)
Heartbeat CPU 0 instructions: 100000003 cycles: 26857493 heartbeat IPC: 3.627 cumulative IPC: 3.483 (Simulation time: 00 hr 06 min 40 sec)
Heartbeat CPU 0 instructions: 110000001 cycles: 29755202 heartbeat IPC: 3.451 cumulative IPC: 3.477 (Simulation time: 00 hr 07 min 21 sec)
Heartbeat CPU 0 instructions: 120000001 cycles: 32471687 heartbeat IPC: 3.681 cumulative IPC: 3.505 (Simulation time: 00 hr 08 min 02 sec)
Heartbeat CPU 0 instructions: 130000003 cycles: 35371153 heartbeat IPC: 3.449 cumulative IPC: 3.498 (Simulation time: 00 hr 08 min 43 sec)
Heartbeat CPU 0 instructions: 140000002 cycles: 38204957 heartbeat IPC: 3.529 cumulative IPC: 3.501 (Simulation time: 00 hr 09 min 24 sec)
Heartbeat CPU 0 instructions: 150000001 cycles: 40975005 heartbeat IPC: 3.61 cumulative IPC: 3.512 (Simulation time: 00 hr 10 min 05 sec)
Heartbeat CPU 0 instructions: 160000000 cycles: 43892634 heartbeat IPC: 3.427 cumulative IPC: 3.504 (Simulation time: 00 hr 10 min 46 sec)
Heartbeat CPU 0 instructions: 170000001 cycles: 46821114 heartbeat IPC: 3.415 cumulative IPC: 3.496 (Simulation time: 00 hr 11 min 27 sec)
Heartbeat CPU 0 instructions: 180000000 cycles: 49612148 heartbeat IPC: 3.583 cumulative IPC: 3.503 (Simulation time: 00 hr 12 min 09 sec)
Heartbeat CPU 0 instructions: 190000002 cycles: 52319155 heartbeat IPC: 3.694 cumulative IPC: 3.516 (Simulation time: 00 hr 12 min 51 sec)
Heartbeat CPU 0 instructions: 200000002 cycles: 55139904 heartbeat IPC: 3.545 cumulative IPC: 3.518 (Simulation time: 00 hr 13 min 34 sec)
Heartbeat CPU 0 instructions: 210000000 cycles: 58032602 heartbeat IPC: 3.457 cumulative IPC: 3.514 (Simulation time: 00 hr 14 min 16 sec)
Heartbeat CPU 0 instructions: 220000001 cycles: 60784611 heartbeat IPC: 3.634 cumulative IPC: 3.521 (Simulation time: 00 hr 14 min 58 sec)
Heartbeat CPU 0 instructions: 230000002 cycles: 63673784 heartbeat IPC: 3.461 cumulative IPC: 3.517 (Simulation time: 00 hr 15 min 40 sec)
Heartbeat CPU 0 instructions: 240000004 cycles: 66624801 heartbeat IPC: 3.389 cumulative IPC: 3.51 (Simulation time: 00 hr 16 min 23 sec)
Heartbeat CPU 0 instructions: 250000003 cycles: 69515661 heartbeat IPC: 3.459 cumulative IPC: 3.508 (Simulation time: 00 hr 17 min 05 sec)
Heartbeat CPU 0 instructions: 260000001 cycles: 72300103 heartbeat IPC: 3.591 cumulative IPC: 3.512 (Simulation time: 00 hr 17 min 46 sec)
Heartbeat CPU 0 instructions: 270000002 cycles: 78059363 heartbeat IPC: 1.736 cumulative IPC: 3.356 (Simulation time: 00 hr 18 min 43 sec)
Heartbeat CPU 0 instructions: 280000000 cycles: 86488783 heartbeat IPC: 1.186 cumulative IPC: 3.109 (Simulation time: 00 hr 19 min 55 sec)
Heartbeat CPU 0 instructions: 290000000 cycles: 93386228 heartbeat IPC: 1.45 cumulative IPC: 2.967 (Simulation time: 00 hr 21 min 00 sec)
Heartbeat CPU 0 instructions: 300000003 cycles: 98380291 heartbeat IPC: 2.002 cumulative IPC: 2.911 (Simulation time: 00 hr 21 min 58 sec)
Heartbeat CPU 0 instructions: 310000001 cycles: 105665678 heartbeat IPC: 1.373 cumulative IPC: 2.791 (Simulation time: 00 hr 23 min 08 sec)
Heartbeat CPU 0 instructions: 320000004 cycles: 109308725 heartbeat IPC: 2.745 cumulative IPC: 2.789 (Simulation time: 00 hr 23 min 56 sec)
Heartbeat CPU 0 instructions: 330000000 cycles: 112400767 heartbeat IPC: 3.234 cumulative IPC: 2.803 (Simulation time: 00 hr 24 min 40 sec)
Heartbeat CPU 0 instructions: 340000001 cycles: 115166455 heartbeat IPC: 3.616 cumulative IPC: 2.825 (Simulation time: 00 hr 25 min 21 sec)
Heartbeat CPU 0 instructions: 350000000 cycles: 118084609 heartbeat IPC: 3.427 cumulative IPC: 2.841 (Simulation time: 00 hr 26 min 04 sec)
Heartbeat CPU 0 instructions: 360000004 cycles: 120837100 heartbeat IPC: 3.633 cumulative IPC: 2.861 (Simulation time: 00 hr 26 min 46 sec)
Heartbeat CPU 0 instructions: 370000001 cycles: 123600593 heartbeat IPC: 3.619 cumulative IPC: 2.88 (Simulation time: 00 hr 27 min 27 sec)
Heartbeat CPU 0 instructions: 380000004 cycles: 126402410 heartbeat IPC: 3.569 cumulative IPC: 2.897 (Simulation time: 00 hr 28 min 09 sec)
Heartbeat CPU 0 instructions: 390000002 cycles: 129219595 heartbeat IPC: 3.55 cumulative IPC: 2.913 (Simulation time: 00 hr 28 min 52 sec)
Heartbeat CPU 0 instructions: 400000000 cycles: 132100975 heartbeat IPC: 3.471 cumulative IPC: 2.926 (Simulation time: 00 hr 29 min 35 sec)
Heartbeat CPU 0 instructions: 410000000 cycles: 136274111 heartbeat IPC: 2.396 cumulative IPC: 2.909 (Simulation time: 00 hr 30 min 25 sec)
Heartbeat CPU 0 instructions: 420000003 cycles: 141353874 heartbeat IPC: 1.969 cumulative IPC: 2.871 (Simulation time: 00 hr 31 min 20 sec)
Heartbeat CPU 0 instructions: 430000000 cycles: 145737738 heartbeat IPC: 2.281 cumulative IPC: 2.852 (Simulation time: 00 hr 32 min 14 sec)
Heartbeat CPU 0 instructions: 440000004 cycles: 149952213 heartbeat IPC: 2.373 cumulative IPC: 2.837 (Simulation time: 00 hr 33 min 06 sec)
Heartbeat CPU 0 instructions: 450000001 cycles: 154195136 heartbeat IPC: 2.357 cumulative IPC: 2.823 (Simulation time: 00 hr 33 min 59 sec)
Heartbeat CPU 0 instructions: 460000002 cycles: 159466737 heartbeat IPC: 1.897 cumulative IPC: 2.79 (Simulation time: 00 hr 34 min 57 sec)
Heartbeat CPU 0 instructions: 470000003 cycles: 163833801 heartbeat IPC: 2.29 cumulative IPC: 2.775 (Simulation time: 00 hr 35 min 50 sec)
Heartbeat CPU 0 instructions: 480000000 cycles: 166799709 heartbeat IPC: 3.372 cumulative IPC: 2.787 (Simulation time: 00 hr 36 min 32 sec)
Heartbeat CPU 0 instructions: 490000001 cycles: 169744902 heartbeat IPC: 3.395 cumulative IPC: 2.798 (Simulation time: 00 hr 37 min 15 sec)
Heartbeat CPU 0 instructions: 500000002 cycles: 172617605 heartbeat IPC: 3.481 cumulative IPC: 2.81 (Simulation time: 00 hr 37 min 57 sec)
Heartbeat CPU 0 instructions: 510000000 cycles: 175501742 heartbeat IPC: 3.467 cumulative IPC: 2.822 (Simulation time: 00 hr 38 min 38 sec)
Heartbeat CPU 0 instructions: 520000000 cycles: 178406089 heartbeat IPC: 3.443 cumulative IPC: 2.833 (Simulation time: 00 hr 39 min 19 sec)
Heartbeat CPU 0 instructions: 530000001 cycles: 183293792 heartbeat IPC: 2.046 cumulative IPC: 2.81 (Simulation time: 00 hr 40 min 12 sec)
Heartbeat CPU 0 instructions: 540000000 cycles: 188039812 heartbeat IPC: 2.107 cumulative IPC: 2.791 (Simulation time: 00 hr 41 min 03 sec)
Heartbeat CPU 0 instructions: 550000004 cycles: 193047538 heartbeat IPC: 1.997 cumulative IPC: 2.769 (Simulation time: 00 hr 41 min 53 sec)
Heartbeat CPU 0 instructions: 560000004 cycles: 196177190 heartbeat IPC: 3.195 cumulative IPC: 2.777 (Simulation time: 00 hr 42 min 29 sec)
Heartbeat CPU 0 instructions: 570000002 cycles: 198949644 heartbeat IPC: 3.607 cumulative IPC: 2.789 (Simulation time: 00 hr 43 min 05 sec)
Heartbeat CPU 0 instructions: 580000000 cycles: 201782364 heartbeat IPC: 3.53 cumulative IPC: 2.8 (Simulation time: 00 hr 43 min 38 sec)
Heartbeat CPU 0 instructions: 590000001 cycles: 204625867 heartbeat IPC: 3.517 cumulative IPC: 2.811 (Simulation time: 00 hr 44 min 06 sec)
Heartbeat CPU 0 instructions: 600000003 cycles: 207275501 heartbeat IPC: 3.774 cumulative IPC: 2.824 (Simulation time: 00 hr 44 min 32 sec)
Heartbeat CPU 0 instructions: 610000001 cycles: 210088174 heartbeat IPC: 3.555 cumulative IPC: 2.834 (Simulation time: 00 hr 44 min 55 sec)
Heartbeat CPU 0 instructions: 620000004 cycles: 212997996 heartbeat IPC: 3.437 cumulative IPC: 2.843 (Simulation time: 00 hr 45 min 16 sec)
Heartbeat CPU 0 instructions: 630000002 cycles: 215775452 heartbeat IPC: 3.6 cumulative IPC: 2.853 (Simulation time: 00 hr 45 min 35 sec)
Heartbeat CPU 0 instructions: 640000004 cycles: 218781549 heartbeat IPC: 3.327 cumulative IPC: 2.86 (Simulation time: 00 hr 45 min 53 sec)
Heartbeat CPU 0 instructions: 650000001 cycles: 221473886 heartbeat IPC: 3.714 cumulative IPC: 2.871 (Simulation time: 00 hr 46 min 10 sec)
Simulation finished CPU 0 instructions: 600000001 cycles: 208973825 cumulative IPC: 2.871 (Simulation time: 00 hr 46 min 10 sec)
Simulation complete CPU 0 instructions: 600000001 cycles: 208973825 cumulative IPC: 2.871 (Simulation time: 00 hr 46 min 10 sec)

ChampSim completed all CPUs

=== Simulation ===
CPU 0 runs traces/400.perlbench-50B.champsimtrace.xz
Region of Interest Statistics

CPU 0 cumulative IPC: 2.871 instructions: 600000001 cycles: 208973825
CPU 0 Branch Prediction Accuracy: 99.01% MPKI: 2.04 Average ROB Occupancy at Mispredict: 93.3
Branch type MPKI
BRANCH_DIRECT_JUMP: 0.0176
BRANCH_INDIRECT: 0.38
BRANCH_CONDITIONAL: 1.19
BRANCH_DIRECT_CALL: 0.0067
BRANCH_INDIRECT_CALL: 0.431
BRANCH_RETURN: 0.0161

LLC TOTAL        ACCESS:     771466 HIT:     653911 MISS:     117555
LLC LOAD         ACCESS:     575623 HIT:     476652 MISS:      98971
LLC RFO          ACCESS:      46998 HIT:      37562 MISS:       9436
LLC PREFETCH     ACCESS:          0 HIT:          0 MISS:          0
LLC WRITE        ACCESS:     126664 HIT:     126614 MISS:         50
LLC TRANSLATION  ACCESS:      22181 HIT:      13083 MISS:       9098
LLC PREFETCH REQUESTED:          0 ISSUED:          0 USEFUL:          0 USELESS:          0
LLC AVERAGE MISS LATENCY: 518.6 cycles
cpu0_DTLB TOTAL        ACCESS:  133215601 HIT:  131861605 MISS:    1353996
cpu0_DTLB LOAD         ACCESS:  133215601 HIT:  131861605 MISS:    1353996
cpu0_DTLB RFO          ACCESS:          0 HIT:          0 MISS:          0
cpu0_DTLB PREFETCH     ACCESS:          0 HIT:          0 MISS:          0
cpu0_DTLB WRITE        ACCESS:          0 HIT:          0 MISS:          0
cpu0_DTLB TRANSLATION  ACCESS:          0 HIT:          0 MISS:          0
cpu0_DTLB PREFETCH REQUESTED:          0 ISSUED:          0 USEFUL:          0 USELESS:          0
cpu0_DTLB AVERAGE MISS LATENCY: 9.431 cycles
cpu0_ITLB TOTAL        ACCESS:    8984139 HIT:    8774729 MISS:     209410
cpu0_ITLB LOAD         ACCESS:    8984139 HIT:    8774729 MISS:     209410
cpu0_ITLB RFO          ACCESS:          0 HIT:          0 MISS:          0
cpu0_ITLB PREFETCH     ACCESS:          0 HIT:          0 MISS:          0
cpu0_ITLB WRITE        ACCESS:          0 HIT:          0 MISS:          0
cpu0_ITLB TRANSLATION  ACCESS:          0 HIT:          0 MISS:          0
cpu0_ITLB PREFETCH REQUESTED:          0 ISSUED:          0 USEFUL:          0 USELESS:          0
cpu0_ITLB AVERAGE MISS LATENCY: 2.377 cycles
cpu0_L1D TOTAL        ACCESS:  178283169 HIT:  174542114 MISS:    3741055
cpu0_L1D LOAD         ACCESS:   92764500 HIT:   89690336 MISS:    3074164
cpu0_L1D RFO          ACCESS:          0 HIT:          0 MISS:          0
cpu0_L1D PREFETCH     ACCESS:          0 HIT:          0 MISS:          0
cpu0_L1D WRITE        ACCESS:   85490142 HIT:   84850354 MISS:     639788
cpu0_L1D TRANSLATION  ACCESS:      28527 HIT:       1424 MISS:      27103
cpu0_L1D PREFETCH REQUESTED:          0 ISSUED:          0 USEFUL:          0 USELESS:          0
cpu0_L1D AVERAGE MISS LATENCY: 22 cycles
cpu0_L1I TOTAL        ACCESS:   10504437 HIT:    8605785 MISS:    1898652
cpu0_L1I LOAD         ACCESS:   10504437 HIT:    8605785 MISS:    1898652
cpu0_L1I RFO          ACCESS:          0 HIT:          0 MISS:          0
cpu0_L1I PREFETCH     ACCESS:          0 HIT:          0 MISS:          0
cpu0_L1I WRITE        ACCESS:          0 HIT:          0 MISS:          0
cpu0_L1I TRANSLATION  ACCESS:          0 HIT:          0 MISS:          0
cpu0_L1I PREFETCH REQUESTED:          0 ISSUED:          0 USEFUL:          0 USELESS:          0
cpu0_L1I AVERAGE MISS LATENCY: 8.5 cycles
cpu0_L2C TOTAL        ACCESS:    3840692 HIT:    3192767 MISS:     647925
cpu0_L2C LOAD         ACCESS:    3103894 HIT:    2528271 MISS:     575623
cpu0_L2C RFO          ACCESS:     194840 HIT:     147842 MISS:      46998
cpu0_L2C PREFETCH     ACCESS:          0 HIT:          0 MISS:          0
cpu0_L2C WRITE        ACCESS:     514928 HIT:     511805 MISS:       3123
cpu0_L2C TRANSLATION  ACCESS:      27030 HIT:       4849 MISS:      22181
cpu0_L2C PREFETCH REQUESTED:          0 ISSUED:          0 USEFUL:          0 USELESS:          0
cpu0_L2C AVERAGE MISS LATENCY: 114.2 cycles
cpu0_STLB TOTAL        ACCESS:    1009670 HIT:     982981 MISS:      26689
cpu0_STLB LOAD         ACCESS:    1009670 HIT:     982981 MISS:      26689
cpu0_STLB RFO          ACCESS:          0 HIT:          0 MISS:          0
cpu0_STLB PREFETCH     ACCESS:          0 HIT:          0 MISS:          0
cpu0_STLB WRITE        ACCESS:          0 HIT:          0 MISS:          0
cpu0_STLB TRANSLATION  ACCESS:          0 HIT:          0 MISS:          0
cpu0_STLB PREFETCH REQUESTED:          0 ISSUED:          0 USEFUL:          0 USELESS:          0
cpu0_STLB AVERAGE MISS LATENCY: 263.6 cycles

DRAM Statistics

Channel 0 RQ ROW_BUFFER_HIT:      35404
  ROW_BUFFER_MISS:      82101
 AVG DBUS CONGESTED CYCLE: 3.75
WQ ROW_BUFFER_HIT: Channel 0 
  ROW_BUFFER_MISS:        726
  FULL:       1264
