WARNING: physical memory size is smaller than virtual memory size.

*** ChampSim Multicore Out-of-Order Simulator ***
Warmup Instructions: 50000000
Simulation Instructions: 600000000
Number of CPUs: 1
Page size: 4096

Off-chip DRAM Size: 4 GiB Channels: 1 Width: 64-bit Data Race: 3200 MT/s
Heartbeat CPU 0 instructions: 10000000 cycles: 2500062 heartbeat IPC: 4 cumulative IPC: 4 (Simulation time: 00 hr 03 min 28 sec)
Heartbeat CPU 0 instructions: 20000000 cycles: 5000062 heartbeat IPC: 4 cumulative IPC: 4 (Simulation time: 00 hr 06 min 50 sec)
Heartbeat CPU 0 instructions: 30000000 cycles: 7500062 heartbeat IPC: 4 cumulative IPC: 4 (Simulation time: 00 hr 10 min 09 sec)
Heartbeat CPU 0 instructions: 40000000 cycles: 10000062 heartbeat IPC: 4 cumulative IPC: 4 (Simulation time: 00 hr 13 min 29 sec)
Heartbeat CPU 0 instructions: 50000000 cycles: 12500062 heartbeat IPC: 4 cumulative IPC: 4 (Simulation time: 00 hr 16 min 51 sec)
Warmup finished CPU 0 instructions: 50000000 cycles: 12500063 cumulative IPC: 4 (Simulation time: 00 hr 16 min 51 sec)
Warmup complete CPU 0 instructions: 50000000 cycles: 12500063 cumulative IPC: 4 (Simulation time: 00 hr 16 min 51 sec)
Heartbeat CPU 0 instructions: 60000002 cycles: 16473434 heartbeat IPC: 2.517 cumulative IPC: 2.517 (Simulation time: 00 hr 21 min 30 sec)
Heartbeat CPU 0 instructions: 70000003 cycles: 20817115 heartbeat IPC: 2.302 cumulative IPC: 2.405 (Simulation time: 00 hr 26 min 33 sec)
Heartbeat CPU 0 instructions: 80000003 cycles: 25323168 heartbeat IPC: 2.219 cumulative IPC: 2.34 (Simulation time: 00 hr 31 min 29 sec)
Heartbeat CPU 0 instructions: 90000000 cycles: 29028663 heartbeat IPC: 2.699 cumulative IPC: 2.42 (Simulation time: 00 hr 35 min 57 sec)
Heartbeat CPU 0 instructions: 100000003 cycles: 32957165 heartbeat IPC: 2.546 cumulative IPC: 2.444 (Simulation time: 00 hr 40 min 38 sec)
Heartbeat CPU 0 instructions: 110000002 cycles: 37070367 heartbeat IPC: 2.431 cumulative IPC: 2.442 (Simulation time: 00 hr 45 min 18 sec)
Heartbeat CPU 0 instructions: 120000001 cycles: 40793865 heartbeat IPC: 2.686 cumulative IPC: 2.474 (Simulation time: 00 hr 49 min 48 sec)
Heartbeat CPU 0 instructions: 130000003 cycles: 44608253 heartbeat IPC: 2.622 cumulative IPC: 2.492 (Simulation time: 00 hr 54 min 20 sec)
Heartbeat CPU 0 instructions: 140000002 cycles: 48748440 heartbeat IPC: 2.415 cumulative IPC: 2.483 (Simulation time: 00 hr 59 min 01 sec)
Heartbeat CPU 0 instructions: 150000001 cycles: 52813003 heartbeat IPC: 2.46 cumulative IPC: 2.481 (Simulation time: 01 hr 03 min 38 sec)
Heartbeat CPU 0 instructions: 160000000 cycles: 56491311 heartbeat IPC: 2.719 cumulative IPC: 2.5 (Simulation time: 01 hr 08 min 05 sec)
Heartbeat CPU 0 instructions: 170000001 cycles: 60686320 heartbeat IPC: 2.384 cumulative IPC: 2.49 (Simulation time: 01 hr 12 min 52 sec)
Heartbeat CPU 0 instructions: 180000001 cycles: 64167973 heartbeat IPC: 2.872 cumulative IPC: 2.516 (Simulation time: 01 hr 17 min 15 sec)
Heartbeat CPU 0 instructions: 190000002 cycles: 67761772 heartbeat IPC: 2.783 cumulative IPC: 2.533 (Simulation time: 01 hr 21 min 45 sec)
Heartbeat CPU 0 instructions: 200000002 cycles: 71563021 heartbeat IPC: 2.631 cumulative IPC: 2.54 (Simulation time: 01 hr 26 min 16 sec)
Heartbeat CPU 0 instructions: 210000000 cycles: 75207378 heartbeat IPC: 2.744 cumulative IPC: 2.552 (Simulation time: 01 hr 30 min 42 sec)
Heartbeat CPU 0 instructions: 220000001 cycles: 79104840 heartbeat IPC: 2.566 cumulative IPC: 2.552 (Simulation time: 01 hr 35 min 15 sec)
Heartbeat CPU 0 instructions: 230000002 cycles: 82972519 heartbeat IPC: 2.586 cumulative IPC: 2.554 (Simulation time: 01 hr 39 min 48 sec)
Heartbeat CPU 0 instructions: 240000001 cycles: 87189356 heartbeat IPC: 2.371 cumulative IPC: 2.544 (Simulation time: 01 hr 44 min 35 sec)
Heartbeat CPU 0 instructions: 250000003 cycles: 91787689 heartbeat IPC: 2.175 cumulative IPC: 2.522 (Simulation time: 01 hr 49 min 37 sec)
Heartbeat CPU 0 instructions: 260000000 cycles: 95597454 heartbeat IPC: 2.625 cumulative IPC: 2.527 (Simulation time: 01 hr 54 min 11 sec)
Heartbeat CPU 0 instructions: 270000003 cycles: 102453381 heartbeat IPC: 1.459 cumulative IPC: 2.446 (Simulation time: 02 hr 00 min 42 sec)
Heartbeat CPU 0 instructions: 280000000 cycles: 112405419 heartbeat IPC: 1.005 cumulative IPC: 2.302 (Simulation time: 02 hr 09 min 27 sec)
Heartbeat CPU 0 instructions: 290000000 cycles: 121203671 heartbeat IPC: 1.137 cumulative IPC: 2.208 (Simulation time: 02 hr 17 min 29 sec)
Heartbeat CPU 0 instructions: 300000003 cycles: 128261616 heartbeat IPC: 1.417 cumulative IPC: 2.16 (Simulation time: 02 hr 24 min 31 sec)
Heartbeat CPU 0 instructions: 310000004 cycles: 138001059 heartbeat IPC: 1.027 cumulative IPC: 2.072 (Simulation time: 02 hr 33 min 36 sec)
Heartbeat CPU 0 instructions: 320000004 cycles: 142889111 heartbeat IPC: 2.046 cumulative IPC: 2.071 (Simulation time: 02 hr 39 min 04 sec)
Heartbeat CPU 0 instructions: 330000000 cycles: 146895431 heartbeat IPC: 2.496 cumulative IPC: 2.083 (Simulation time: 02 hr 43 min 51 sec)
Heartbeat CPU 0 instructions: 340000001 cycles: 150945343 heartbeat IPC: 2.469 cumulative IPC: 2.095 (Simulation time: 02 hr 48 min 35 sec)
Heartbeat CPU 0 instructions: 350000004 cycles: 155090349 heartbeat IPC: 2.413 cumulative IPC: 2.104 (Simulation time: 02 hr 53 min 25 sec)
Heartbeat CPU 0 instructions: 360000003 cycles: 158901999 heartbeat IPC: 2.624 cumulative IPC: 2.117 (Simulation time: 02 hr 58 min 02 sec)
Heartbeat CPU 0 instructions: 370000001 cycles: 162652138 heartbeat IPC: 2.667 cumulative IPC: 2.131 (Simulation time: 03 hr 02 min 37 sec)
Heartbeat CPU 0 instructions: 380000004 cycles: 166243578 heartbeat IPC: 2.784 cumulative IPC: 2.146 (Simulation time: 03 hr 07 min 09 sec)
Heartbeat CPU 0 instructions: 390000002 cycles: 169849241 heartbeat IPC: 2.773 cumulative IPC: 2.161 (Simulation time: 03 hr 11 min 40 sec)
Heartbeat CPU 0 instructions: 400000000 cycles: 173706148 heartbeat IPC: 2.593 cumulative IPC: 2.171 (Simulation time: 03 hr 16 min 21 sec)
Heartbeat CPU 0 instructions: 410000000 cycles: 179203642 heartbeat IPC: 1.819 cumulative IPC: 2.16 (Simulation time: 03 hr 22 min 09 sec)
Heartbeat CPU 0 instructions: 420000003 cycles: 185986133 heartbeat IPC: 1.474 cumulative IPC: 2.133 (Simulation time: 03 hr 28 min 55 sec)
Heartbeat CPU 0 instructions: 430000000 cycles: 192562979 heartbeat IPC: 1.52 cumulative IPC: 2.11 (Simulation time: 03 hr 35 min 43 sec)
Heartbeat CPU 0 instructions: 440000004 cycles: 198650388 heartbeat IPC: 1.643 cumulative IPC: 2.095 (Simulation time: 03 hr 42 min 05 sec)
Heartbeat CPU 0 instructions: 450000001 cycles: 204875868 heartbeat IPC: 1.606 cumulative IPC: 2.079 (Simulation time: 03 hr 48 min 33 sec)
Heartbeat CPU 0 instructions: 460000002 cycles: 212831933 heartbeat IPC: 1.257 cumulative IPC: 2.047 (Simulation time: 03 hr 56 min 11 sec)
Heartbeat CPU 0 instructions: 470000003 cycles: 220105112 heartbeat IPC: 1.375 cumulative IPC: 2.023 (Simulation time: 04 hr 03 min 18 sec)
Heartbeat CPU 0 instructions: 480000003 cycles: 224112091 heartbeat IPC: 2.496 cumulative IPC: 2.032 (Simulation time: 04 hr 08 min 08 sec)
Heartbeat CPU 0 instructions: 490000001 cycles: 228339714 heartbeat IPC: 2.365 cumulative IPC: 2.039 (Simulation time: 04 hr 13 min 00 sec)
Heartbeat CPU 0 instructions: 500000002 cycles: 232222776 heartbeat IPC: 2.575 cumulative IPC: 2.048 (Simulation time: 04 hr 17 min 42 sec)
Heartbeat CPU 0 instructions: 510000000 cycles: 235861147 heartbeat IPC: 2.748 cumulative IPC: 2.059 (Simulation time: 04 hr 22 min 16 sec)
Heartbeat CPU 0 instructions: 520000000 cycles: 239575730 heartbeat IPC: 2.692 cumulative IPC: 2.07 (Simulation time: 04 hr 26 min 51 sec)
Heartbeat CPU 0 instructions: 530000001 cycles: 246575946 heartbeat IPC: 1.429 cumulative IPC: 2.051 (Simulation time: 04 hr 33 min 44 sec)
Heartbeat CPU 0 instructions: 540000000 cycles: 253791629 heartbeat IPC: 1.386 cumulative IPC: 2.031 (Simulation time: 04 hr 40 min 52 sec)
Heartbeat CPU 0 instructions: 550000004 cycles: 262278718 heartbeat IPC: 1.178 cumulative IPC: 2.002 (Simulation time: 04 hr 48 min 45 sec)
Heartbeat CPU 0 instructions: 560000004 cycles: 266220647 heartbeat IPC: 2.537 cumulative IPC: 2.01 (Simulation time: 04 hr 53 min 26 sec)
Heartbeat CPU 0 instructions: 570000001 cycles: 269325931 heartbeat IPC: 3.22 cumulative IPC: 2.025 (Simulation time: 04 hr 57 min 37 sec)
Heartbeat CPU 0 instructions: 580000003 cycles: 272816863 heartbeat IPC: 2.865 cumulative IPC: 2.036 (Simulation time: 05 hr 01 min 57 sec)
Heartbeat CPU 0 instructions: 590000002 cycles: 276403259 heartbeat IPC: 2.788 cumulative IPC: 2.046 (Simulation time: 05 hr 06 min 33 sec)
Heartbeat CPU 0 instructions: 600000003 cycles: 279445468 heartbeat IPC: 3.287 cumulative IPC: 2.06 (Simulation time: 05 hr 10 min 49 sec)
Heartbeat CPU 0 instructions: 610000001 cycles: 282927044 heartbeat IPC: 2.872 cumulative IPC: 2.071 (Simulation time: 05 hr 15 min 27 sec)
Heartbeat CPU 0 instructions: 620000000 cycles: 286920619 heartbeat IPC: 2.504 cumulative IPC: 2.077 (Simulation time: 05 hr 20 min 09 sec)
Heartbeat CPU 0 instructions: 630000002 cycles: 290267774 heartbeat IPC: 2.988 cumulative IPC: 2.088 (Simulation time: 05 hr 24 min 33 sec)
Heartbeat CPU 0 instructions: 640000004 cycles: 294249968 heartbeat IPC: 2.511 cumulative IPC: 2.094 (Simulation time: 05 hr 29 min 10 sec)
Heartbeat CPU 0 instructions: 650000001 cycles: 298059927 heartbeat IPC: 2.625 cumulative IPC: 2.101 (Simulation time: 05 hr 33 min 41 sec)
Simulation finished CPU 0 instructions: 600000001 cycles: 285559865 cumulative IPC: 2.101 (Simulation time: 05 hr 33 min 41 sec)
Simulation complete CPU 0 instructions: 600000001 cycles: 285559865 cumulative IPC: 2.101 (Simulation time: 05 hr 33 min 41 sec)

ChampSim completed all CPUs

=== Simulation ===
CPU 0 runs traces/400.perlbench-50B.champsimtrace.xz
Region of Interest Statistics

CPU 0 cumulative IPC: 2.101 instructions: 600000001 cycles: 285559865
CPU 0 Branch Prediction Accuracy: 96.2% MPKI: 7.839 Average ROB Occupancy at Mispredict: 43.14
Branch type MPKI
BRANCH_DIRECT_JUMP: 0.0176
BRANCH_INDIRECT: 0.38
BRANCH_CONDITIONAL: 6.99
BRANCH_DIRECT_CALL: 0.0067
BRANCH_INDIRECT_CALL: 0.431
BRANCH_RETURN: 0.0161

LLC TOTAL        ACCESS:    1208311 HIT:     982239 MISS:     226072
LLC LOAD         ACCESS:     584833 HIT:     498746 MISS:      86087
LLC RFO          ACCESS:      47250 HIT:      37017 MISS:      10233
LLC PREFETCH     ACCESS:     426489 HIT:     308446 MISS:     118043
LLC WRITE        ACCESS:     127651 HIT:     126301 MISS:       1350
LLC TRANSLATION  ACCESS:      22088 HIT:      11729 MISS:      10359
LLC PREFETCH REQUESTED:     426532 ISSUED:     426489 USEFUL:      37832 USELESS:      41102
LLC AVERAGE MISS LATENCY: 607 cycles
cpu0_DTLB TOTAL        ACCESS:  146513224 HIT:  145208808 MISS:    1304416
cpu0_DTLB LOAD         ACCESS:  146513224 HIT:  145208808 MISS:    1304416
cpu0_DTLB RFO          ACCESS:          0 HIT:          0 MISS:          0
cpu0_DTLB PREFETCH     ACCESS:          0 HIT:          0 MISS:          0
cpu0_DTLB WRITE        ACCESS:          0 HIT:          0 MISS:          0
cpu0_DTLB TRANSLATION  ACCESS:          0 HIT:          0 MISS:          0
cpu0_DTLB PREFETCH REQUESTED:          0 ISSUED:          0 USEFUL:          0 USELESS:          0
cpu0_DTLB AVERAGE MISS LATENCY: 10.73 cycles
cpu0_ITLB TOTAL        ACCESS:    8985968 HIT:    8801368 MISS:     184600
cpu0_ITLB LOAD         ACCESS:    8985968 HIT:    8801368 MISS:     184600
cpu0_ITLB RFO          ACCESS:          0 HIT:          0 MISS:          0
cpu0_ITLB PREFETCH     ACCESS:          0 HIT:          0 MISS:          0
cpu0_ITLB WRITE        ACCESS:          0 HIT:          0 MISS:          0
cpu0_ITLB TRANSLATION  ACCESS:          0 HIT:          0 MISS:          0
cpu0_ITLB PREFETCH REQUESTED:          0 ISSUED:          0 USEFUL:          0 USELESS:          0
cpu0_ITLB AVERAGE MISS LATENCY: 3.165 cycles
cpu0_L1D TOTAL        ACCESS:  193313648 HIT:  189688611 MISS:    3625037
cpu0_L1D LOAD         ACCESS:  107467078 HIT:  104478689 MISS:    2988389
cpu0_L1D RFO          ACCESS:          0 HIT:          0 MISS:          0
cpu0_L1D PREFETCH     ACCESS:          0 HIT:          0 MISS:          0
cpu0_L1D WRITE        ACCESS:   85818046 HIT:   85208500 MISS:     609546
cpu0_L1D TRANSLATION  ACCESS:      28524 HIT:       1422 MISS:      27102
cpu0_L1D PREFETCH REQUESTED:          0 ISSUED:          0 USEFUL:          0 USELESS:          0
cpu0_L1D AVERAGE MISS LATENCY: 23.41 cycles
cpu0_L1I TOTAL        ACCESS:   10420441 HIT:    8658605 MISS:    1761836
cpu0_L1I LOAD         ACCESS:   10420441 HIT:    8658605 MISS:    1761836
cpu0_L1I RFO          ACCESS:          0 HIT:          0 MISS:          0
cpu0_L1I PREFETCH     ACCESS:          0 HIT:          0 MISS:          0
cpu0_L1I WRITE        ACCESS:          0 HIT:          0 MISS:          0
cpu0_L1I TRANSLATION  ACCESS:          0 HIT:          0 MISS:          0
cpu0_L1I PREFETCH REQUESTED:          0 ISSUED:          0 USEFUL:          0 USELESS:          0
cpu0_L1I AVERAGE MISS LATENCY: 9.254 cycles
cpu0_L2C TOTAL        ACCESS:    3834705 HIT:    3177280 MISS:     657425
cpu0_L2C LOAD         ACCESS:    3104980 HIT:    2520147 MISS:     584833
cpu0_L2C RFO          ACCESS:     191535 HIT:     144285 MISS:      47250
cpu0_L2C PREFETCH     ACCESS:          0 HIT:          0 MISS:          0
cpu0_L2C WRITE        ACCESS:     511156 HIT:     507902 MISS:       3254
cpu0_L2C TRANSLATION  ACCESS:      27034 HIT:       4946 MISS:      22088
cpu0_L2C PREFETCH REQUESTED:          0 ISSUED:          0 USEFUL:          0 USELESS:          0
cpu0_L2C AVERAGE MISS LATENCY: 112 cycles
cpu0_STLB TOTAL        ACCESS:    1008256 HIT:     981561 MISS:      26695
cpu0_STLB LOAD         ACCESS:    1008256 HIT:     981561 MISS:      26695
cpu0_STLB RFO          ACCESS:          0 HIT:          0 MISS:          0
cpu0_STLB PREFETCH     ACCESS:          0 HIT:          0 MISS:          0
cpu0_STLB WRITE        ACCESS:          0 HIT:          0 MISS:          0
cpu0_STLB TRANSLATION  ACCESS:          0 HIT:          0 MISS:          0
cpu0_STLB PREFETCH REQUESTED:          0 ISSUED:          0 USEFUL:          0 USELESS:          0
cpu0_STLB AVERAGE MISS LATENCY: 300.1 cycles

DRAM Statistics

Channel 0 RQ ROW_BUFFER_HIT:      87401
  ROW_BUFFER_MISS:     132173
 AVG DBUS CONGESTED CYCLE: 3.88
WQ ROW_BUFFER_HIT: Channel 0 
  ROW_BUFFER_MISS:       2956
  FULL:       5078
