WARNING: physical memory size is smaller than virtual memory size.

*** ChampSim Multicore Out-of-Order Simulator ***
Warmup Instructions: 50000000
Simulation Instructions: 600000000
Number of CPUs: 1
Page size: 4096

CPU 0 Tage branch predictor
Off-chip DRAM Size: 4 GiB Channels: 1 Width: 64-bit Data Race: 3200 MT/s
Heartbeat CPU 0 instructions: 10000001 cycles: 2500318 heartbeat IPC: 3.999 cumulative IPC: 3.999 (Simulation time: 00 hr 00 min 42 sec)
Heartbeat CPU 0 instructions: 20000002 cycles: 5037133 heartbeat IPC: 3.942 cumulative IPC: 3.971 (Simulation time: 00 hr 01 min 24 sec)
Heartbeat CPU 0 instructions: 30000002 cycles: 7537133 heartbeat IPC: 4 cumulative IPC: 3.98 (Simulation time: 00 hr 02 min 04 sec)
Heartbeat CPU 0 instructions: 40000002 cycles: 10037133 heartbeat IPC: 4 cumulative IPC: 3.985 (Simulation time: 00 hr 02 min 47 sec)
Heartbeat CPU 0 instructions: 50000002 cycles: 12537133 heartbeat IPC: 4 cumulative IPC: 3.988 (Simulation time: 00 hr 03 min 29 sec)
Warmup finished CPU 0 instructions: 50000002 cycles: 12537134 cumulative IPC: 3.988 (Simulation time: 00 hr 03 min 29 sec)
Warmup complete CPU 0 instructions: 50000002 cycles: 12537134 cumulative IPC: 3.988 (Simulation time: 00 hr 03 min 29 sec)
Heartbeat CPU 0 instructions: 60000001 cycles: 15497933 heartbeat IPC: 3.377 cumulative IPC: 3.377 (Simulation time: 00 hr 04 min 19 sec)
Heartbeat CPU 0 instructions: 70000004 cycles: 18555730 heartbeat IPC: 3.27 cumulative IPC: 3.323 (Simulation time: 00 hr 05 min 09 sec)
Heartbeat CPU 0 instructions: 80000001 cycles: 21588864 heartbeat IPC: 3.297 cumulative IPC: 3.314 (Simulation time: 00 hr 05 min 59 sec)
Heartbeat CPU 0 instructions: 90000001 cycles: 24522196 heartbeat IPC: 3.409 cumulative IPC: 3.337 (Simulation time: 00 hr 06 min 49 sec)
Heartbeat CPU 0 instructions: 100000000 cycles: 27421486 heartbeat IPC: 3.449 cumulative IPC: 3.359 (Simulation time: 00 hr 07 min 35 sec)
Heartbeat CPU 0 instructions: 110000000 cycles: 30352979 heartbeat IPC: 3.411 cumulative IPC: 3.368 (Simulation time: 00 hr 08 min 24 sec)
Heartbeat CPU 0 instructions: 120000001 cycles: 33315290 heartbeat IPC: 3.376 cumulative IPC: 3.369 (Simulation time: 00 hr 09 min 13 sec)
Heartbeat CPU 0 instructions: 130000001 cycles: 36158309 heartbeat IPC: 3.517 cumulative IPC: 3.387 (Simulation time: 00 hr 10 min 03 sec)
Heartbeat CPU 0 instructions: 140000001 cycles: 39181899 heartbeat IPC: 3.307 cumulative IPC: 3.378 (Simulation time: 00 hr 10 min 50 sec)
Heartbeat CPU 0 instructions: 150000001 cycles: 42173517 heartbeat IPC: 3.343 cumulative IPC: 3.374 (Simulation time: 00 hr 11 min 37 sec)
Heartbeat CPU 0 instructions: 160000004 cycles: 45162653 heartbeat IPC: 3.345 cumulative IPC: 3.372 (Simulation time: 00 hr 12 min 25 sec)
Heartbeat CPU 0 instructions: 170000000 cycles: 50625088 heartbeat IPC: 1.831 cumulative IPC: 3.151 (Simulation time: 00 hr 13 min 30 sec)
Heartbeat CPU 0 instructions: 180000004 cycles: 55367412 heartbeat IPC: 2.109 cumulative IPC: 3.035 (Simulation time: 00 hr 14 min 32 sec)
Heartbeat CPU 0 instructions: 190000001 cycles: 59772379 heartbeat IPC: 2.27 cumulative IPC: 2.964 (Simulation time: 00 hr 15 min 32 sec)
Heartbeat CPU 0 instructions: 200000004 cycles: 62529141 heartbeat IPC: 3.627 cumulative IPC: 3 (Simulation time: 00 hr 16 min 17 sec)
Heartbeat CPU 0 instructions: 210000001 cycles: 65332884 heartbeat IPC: 3.567 cumulative IPC: 3.031 (Simulation time: 00 hr 17 min 03 sec)
Heartbeat CPU 0 instructions: 220000000 cycles: 68132211 heartbeat IPC: 3.572 cumulative IPC: 3.058 (Simulation time: 00 hr 17 min 49 sec)
Heartbeat CPU 0 instructions: 230000002 cycles: 70839342 heartbeat IPC: 3.694 cumulative IPC: 3.087 (Simulation time: 00 hr 18 min 32 sec)
Heartbeat CPU 0 instructions: 240000003 cycles: 73673475 heartbeat IPC: 3.528 cumulative IPC: 3.108 (Simulation time: 00 hr 19 min 17 sec)
Heartbeat CPU 0 instructions: 250000000 cycles: 76460443 heartbeat IPC: 3.588 cumulative IPC: 3.129 (Simulation time: 00 hr 20 min 01 sec)
Heartbeat CPU 0 instructions: 260000002 cycles: 79188827 heartbeat IPC: 3.665 cumulative IPC: 3.151 (Simulation time: 00 hr 20 min 45 sec)
Heartbeat CPU 0 instructions: 270000002 cycles: 81933048 heartbeat IPC: 3.644 cumulative IPC: 3.17 (Simulation time: 00 hr 21 min 29 sec)
Heartbeat CPU 0 instructions: 280000002 cycles: 84639029 heartbeat IPC: 3.696 cumulative IPC: 3.19 (Simulation time: 00 hr 22 min 13 sec)
Heartbeat CPU 0 instructions: 290000002 cycles: 87452116 heartbeat IPC: 3.555 cumulative IPC: 3.204 (Simulation time: 00 hr 22 min 58 sec)
Heartbeat CPU 0 instructions: 300000003 cycles: 90123758 heartbeat IPC: 3.743 cumulative IPC: 3.222 (Simulation time: 00 hr 23 min 43 sec)
Heartbeat CPU 0 instructions: 310000001 cycles: 92896315 heartbeat IPC: 3.607 cumulative IPC: 3.235 (Simulation time: 00 hr 24 min 27 sec)
Heartbeat CPU 0 instructions: 320000003 cycles: 95706635 heartbeat IPC: 3.558 cumulative IPC: 3.246 (Simulation time: 00 hr 25 min 11 sec)
Heartbeat CPU 0 instructions: 330000003 cycles: 98415268 heartbeat IPC: 3.692 cumulative IPC: 3.26 (Simulation time: 00 hr 25 min 55 sec)
Heartbeat CPU 0 instructions: 340000000 cycles: 102766447 heartbeat IPC: 2.298 cumulative IPC: 3.214 (Simulation time: 00 hr 26 min 50 sec)
Heartbeat CPU 0 instructions: 350000000 cycles: 107564936 heartbeat IPC: 2.084 cumulative IPC: 3.157 (Simulation time: 00 hr 27 min 52 sec)
Heartbeat CPU 0 instructions: 360000004 cycles: 112294948 heartbeat IPC: 2.114 cumulative IPC: 3.108 (Simulation time: 00 hr 28 min 52 sec)
Heartbeat CPU 0 instructions: 370000000 cycles: 115112120 heartbeat IPC: 3.55 cumulative IPC: 3.12 (Simulation time: 00 hr 29 min 39 sec)
Heartbeat CPU 0 instructions: 380000003 cycles: 117879431 heartbeat IPC: 3.614 cumulative IPC: 3.133 (Simulation time: 00 hr 30 min 26 sec)
Heartbeat CPU 0 instructions: 390000002 cycles: 120753248 heartbeat IPC: 3.48 cumulative IPC: 3.142 (Simulation time: 00 hr 31 min 12 sec)
Heartbeat CPU 0 instructions: 400000004 cycles: 123592131 heartbeat IPC: 3.523 cumulative IPC: 3.152 (Simulation time: 00 hr 31 min 59 sec)
Heartbeat CPU 0 instructions: 410000002 cycles: 126362198 heartbeat IPC: 3.61 cumulative IPC: 3.163 (Simulation time: 00 hr 32 min 44 sec)
Heartbeat CPU 0 instructions: 420000003 cycles: 129212459 heartbeat IPC: 3.508 cumulative IPC: 3.171 (Simulation time: 00 hr 33 min 31 sec)
Heartbeat CPU 0 instructions: 430000001 cycles: 132092010 heartbeat IPC: 3.473 cumulative IPC: 3.178 (Simulation time: 00 hr 34 min 19 sec)
Heartbeat CPU 0 instructions: 440000004 cycles: 135026747 heartbeat IPC: 3.407 cumulative IPC: 3.184 (Simulation time: 00 hr 35 min 06 sec)
Heartbeat CPU 0 instructions: 450000002 cycles: 137769939 heartbeat IPC: 3.645 cumulative IPC: 3.194 (Simulation time: 00 hr 35 min 52 sec)
Heartbeat CPU 0 instructions: 460000000 cycles: 140543610 heartbeat IPC: 3.605 cumulative IPC: 3.203 (Simulation time: 00 hr 36 min 39 sec)
Heartbeat CPU 0 instructions: 470000001 cycles: 143262648 heartbeat IPC: 3.678 cumulative IPC: 3.213 (Simulation time: 00 hr 37 min 25 sec)
Heartbeat CPU 0 instructions: 480000003 cycles: 146151029 heartbeat IPC: 3.462 cumulative IPC: 3.218 (Simulation time: 00 hr 38 min 11 sec)
Heartbeat CPU 0 instructions: 490000004 cycles: 148875310 heartbeat IPC: 3.671 cumulative IPC: 3.227 (Simulation time: 00 hr 38 min 57 sec)
Heartbeat CPU 0 instructions: 500000004 cycles: 151755676 heartbeat IPC: 3.472 cumulative IPC: 3.232 (Simulation time: 00 hr 39 min 44 sec)
Heartbeat CPU 0 instructions: 510000003 cycles: 154606143 heartbeat IPC: 3.508 cumulative IPC: 3.238 (Simulation time: 00 hr 40 min 31 sec)
Heartbeat CPU 0 instructions: 520000001 cycles: 157310229 heartbeat IPC: 3.698 cumulative IPC: 3.246 (Simulation time: 00 hr 41 min 18 sec)
Heartbeat CPU 0 instructions: 530000001 cycles: 160160439 heartbeat IPC: 3.509 cumulative IPC: 3.252 (Simulation time: 00 hr 42 min 04 sec)
Heartbeat CPU 0 instructions: 540000000 cycles: 162964409 heartbeat IPC: 3.566 cumulative IPC: 3.257 (Simulation time: 00 hr 42 min 51 sec)
Heartbeat CPU 0 instructions: 550000001 cycles: 165818188 heartbeat IPC: 3.504 cumulative IPC: 3.262 (Simulation time: 00 hr 43 min 38 sec)
Heartbeat CPU 0 instructions: 560000000 cycles: 168666419 heartbeat IPC: 3.511 cumulative IPC: 3.267 (Simulation time: 00 hr 44 min 25 sec)
Heartbeat CPU 0 instructions: 570000004 cycles: 172291566 heartbeat IPC: 2.759 cumulative IPC: 3.255 (Simulation time: 00 hr 45 min 18 sec)
Heartbeat CPU 0 instructions: 580000003 cycles: 177036512 heartbeat IPC: 2.108 cumulative IPC: 3.222 (Simulation time: 00 hr 46 min 20 sec)
Heartbeat CPU 0 instructions: 590000002 cycles: 182299128 heartbeat IPC: 1.9 cumulative IPC: 3.181 (Simulation time: 00 hr 47 min 25 sec)
Heartbeat CPU 0 instructions: 600000004 cycles: 185177949 heartbeat IPC: 3.474 cumulative IPC: 3.186 (Simulation time: 00 hr 48 min 12 sec)
Heartbeat CPU 0 instructions: 610000002 cycles: 188009949 heartbeat IPC: 3.531 cumulative IPC: 3.191 (Simulation time: 00 hr 48 min 59 sec)
Heartbeat CPU 0 instructions: 620000001 cycles: 190707829 heartbeat IPC: 3.707 cumulative IPC: 3.199 (Simulation time: 00 hr 49 min 47 sec)
Heartbeat CPU 0 instructions: 630000002 cycles: 193564241 heartbeat IPC: 3.501 cumulative IPC: 3.204 (Simulation time: 00 hr 50 min 34 sec)
Heartbeat CPU 0 instructions: 640000004 cycles: 196466048 heartbeat IPC: 3.446 cumulative IPC: 3.208 (Simulation time: 00 hr 51 min 21 sec)
Heartbeat CPU 0 instructions: 650000000 cycles: 199168747 heartbeat IPC: 3.7 cumulative IPC: 3.215 (Simulation time: 00 hr 52 min 05 sec)
Simulation finished CPU 0 instructions: 600000001 cycles: 186631615 cumulative IPC: 3.215 (Simulation time: 00 hr 52 min 05 sec)
Simulation complete CPU 0 instructions: 600000001 cycles: 186631615 cumulative IPC: 3.215 (Simulation time: 00 hr 52 min 05 sec)

ChampSim completed all CPUs

=== Simulation ===
CPU 0 runs traces/400.perlbench-41B.champsimtrace.xz
Region of Interest Statistics

CPU 0 cumulative IPC: 3.215 instructions: 600000001 cycles: 186631615
CPU 0 Branch Prediction Accuracy: 99.19% MPKI: 1.684 Average ROB Occupancy at Mispredict: 100.5
Branch type MPKI
BRANCH_DIRECT_JUMP: 0.0123
BRANCH_INDIRECT: 0.323
BRANCH_CONDITIONAL: 1.14
BRANCH_DIRECT_CALL: 0.0043
BRANCH_INDIRECT_CALL: 0.2
BRANCH_RETURN: 0.00828

LLC TOTAL        ACCESS:     541117 HIT:     490394 MISS:      50723
LLC LOAD         ACCESS:     403800 HIT:     363965 MISS:      39835
LLC RFO          ACCESS:      32548 HIT:      28281 MISS:       4267
LLC PREFETCH     ACCESS:          0 HIT:          0 MISS:          0
LLC WRITE        ACCESS:      85613 HIT:      85600 MISS:         13
LLC TRANSLATION  ACCESS:      19156 HIT:      12548 MISS:       6608
LLC PREFETCH REQUESTED:          0 ISSUED:          0 USEFUL:          0 USELESS:          0
LLC AVERAGE MISS LATENCY: 538.4 cycles
cpu0_DTLB TOTAL        ACCESS:  129749584 HIT:  129048453 MISS:     701131
cpu0_DTLB LOAD         ACCESS:  129749584 HIT:  129048453 MISS:     701131
cpu0_DTLB RFO          ACCESS:          0 HIT:          0 MISS:          0
cpu0_DTLB PREFETCH     ACCESS:          0 HIT:          0 MISS:          0
cpu0_DTLB WRITE        ACCESS:          0 HIT:          0 MISS:          0
cpu0_DTLB TRANSLATION  ACCESS:          0 HIT:          0 MISS:          0
cpu0_DTLB PREFETCH REQUESTED:          0 ISSUED:          0 USEFUL:          0 USELESS:          0
cpu0_DTLB AVERAGE MISS LATENCY: 10.23 cycles
cpu0_ITLB TOTAL        ACCESS:    4860778 HIT:    4798672 MISS:      62106
cpu0_ITLB LOAD         ACCESS:    4860778 HIT:    4798672 MISS:      62106
cpu0_ITLB RFO          ACCESS:          0 HIT:          0 MISS:          0
cpu0_ITLB PREFETCH     ACCESS:          0 HIT:          0 MISS:          0
cpu0_ITLB WRITE        ACCESS:          0 HIT:          0 MISS:          0
cpu0_ITLB TRANSLATION  ACCESS:          0 HIT:          0 MISS:          0
cpu0_ITLB PREFETCH REQUESTED:          0 ISSUED:          0 USEFUL:          0 USELESS:          0
cpu0_ITLB AVERAGE MISS LATENCY: 3.899 cycles
cpu0_L1D TOTAL        ACCESS:  174379210 HIT:  172650447 MISS:    1728763
cpu0_L1D LOAD         ACCESS:   91356610 HIT:   90008776 MISS:    1347834
cpu0_L1D RFO          ACCESS:          0 HIT:          0 MISS:          0
cpu0_L1D PREFETCH     ACCESS:          0 HIT:          0 MISS:          0
cpu0_L1D WRITE        ACCESS:   82998135 HIT:   82640606 MISS:     357529
cpu0_L1D TRANSLATION  ACCESS:      24465 HIT:       1065 MISS:      23400
cpu0_L1D PREFETCH REQUESTED:          0 ISSUED:          0 USEFUL:          0 USELESS:          0
cpu0_L1D AVERAGE MISS LATENCY: 23.05 cycles
cpu0_L1I TOTAL        ACCESS:    5640773 HIT:    4836720 MISS:     804053
cpu0_L1I LOAD         ACCESS:    5640773 HIT:    4836720 MISS:     804053
cpu0_L1I RFO          ACCESS:          0 HIT:          0 MISS:          0
cpu0_L1I PREFETCH     ACCESS:          0 HIT:          0 MISS:          0
cpu0_L1I WRITE        ACCESS:          0 HIT:          0 MISS:          0
cpu0_L1I TRANSLATION  ACCESS:          0 HIT:          0 MISS:          0
cpu0_L1I PREFETCH REQUESTED:          0 ISSUED:          0 USEFUL:          0 USELESS:          0
cpu0_L1I AVERAGE MISS LATENCY: 8.098 cycles
cpu0_L2C TOTAL        ACCESS:    1668517 HIT:    1211187 MISS:     457330
cpu0_L2C LOAD         ACCESS:    1315383 HIT:     911583 MISS:     403800
cpu0_L2C RFO          ACCESS:      89534 HIT:      56985 MISS:      32549
cpu0_L2C PREFETCH     ACCESS:          0 HIT:          0 MISS:          0
cpu0_L2C WRITE        ACCESS:     240280 HIT:     238455 MISS:       1825
cpu0_L2C TRANSLATION  ACCESS:      23320 HIT:       4164 MISS:      19156
cpu0_L2C PREFETCH REQUESTED:          0 ISSUED:          0 USEFUL:          0 USELESS:          0
cpu0_L2C AVERAGE MISS LATENCY: 79.75 cycles
cpu0_STLB TOTAL        ACCESS:     507931 HIT:     485143 MISS:      22788
cpu0_STLB LOAD         ACCESS:     507931 HIT:     485143 MISS:      22788
cpu0_STLB RFO          ACCESS:          0 HIT:          0 MISS:          0
cpu0_STLB PREFETCH     ACCESS:          0 HIT:          0 MISS:          0
cpu0_STLB WRITE        ACCESS:          0 HIT:          0 MISS:          0
cpu0_STLB TRANSLATION  ACCESS:          0 HIT:          0 MISS:          0
cpu0_STLB PREFETCH REQUESTED:          0 ISSUED:          0 USEFUL:          0 USELESS:          0
cpu0_STLB AVERAGE MISS LATENCY: 188.4 cycles

DRAM Statistics

Channel 0 RQ ROW_BUFFER_HIT:      13300
  ROW_BUFFER_MISS:      37409
 AVG DBUS CONGESTED CYCLE: 3.753
WQ ROW_BUFFER_HIT: Channel 0 
  ROW_BUFFER_MISS:        562
  FULL:        957
