WARNING: physical memory size is smaller than virtual memory size.

*** ChampSim Multicore Out-of-Order Simulator ***
Warmup Instructions: 50000000
Simulation Instructions: 600000000
Number of CPUs: 1
Page size: 4096

CPU 0 Tage branch predictor
Off-chip DRAM Size: 4 GiB Channels: 1 Width: 64-bit Data Race: 3200 MT/s
Heartbeat CPU 0 instructions: 10000000 cycles: 2500062 heartbeat IPC: 4 cumulative IPC: 4 (Simulation time: 00 hr 04 min 19 sec)
Heartbeat CPU 0 instructions: 20000000 cycles: 5000062 heartbeat IPC: 4 cumulative IPC: 4 (Simulation time: 00 hr 08 min 25 sec)
Heartbeat CPU 0 instructions: 30000000 cycles: 7500062 heartbeat IPC: 4 cumulative IPC: 4 (Simulation time: 00 hr 12 min 30 sec)
Heartbeat CPU 0 instructions: 40000000 cycles: 10000062 heartbeat IPC: 4 cumulative IPC: 4 (Simulation time: 00 hr 16 min 33 sec)
Heartbeat CPU 0 instructions: 50000000 cycles: 12500062 heartbeat IPC: 4 cumulative IPC: 4 (Simulation time: 00 hr 20 min 39 sec)
Warmup finished CPU 0 instructions: 50000000 cycles: 12500063 cumulative IPC: 4 (Simulation time: 00 hr 20 min 39 sec)
Warmup complete CPU 0 instructions: 50000000 cycles: 12500063 cumulative IPC: 4 (Simulation time: 00 hr 20 min 39 sec)
Heartbeat CPU 0 instructions: 60000004 cycles: 15547421 heartbeat IPC: 3.282 cumulative IPC: 3.282 (Simulation time: 00 hr 25 min 32 sec)
Heartbeat CPU 0 instructions: 70000003 cycles: 18491722 heartbeat IPC: 3.396 cumulative IPC: 3.338 (Simulation time: 00 hr 30 min 23 sec)
Heartbeat CPU 0 instructions: 80000002 cycles: 21580727 heartbeat IPC: 3.237 cumulative IPC: 3.304 (Simulation time: 00 hr 35 min 19 sec)
Heartbeat CPU 0 instructions: 90000000 cycles: 24337704 heartbeat IPC: 3.627 cumulative IPC: 3.379 (Simulation time: 00 hr 40 min 04 sec)
Heartbeat CPU 0 instructions: 100000003 cycles: 27156608 heartbeat IPC: 3.547 cumulative IPC: 3.411 (Simulation time: 00 hr 45 min 07 sec)
Heartbeat CPU 0 instructions: 110000001 cycles: 30110604 heartbeat IPC: 3.385 cumulative IPC: 3.407 (Simulation time: 00 hr 49 min 56 sec)
Heartbeat CPU 0 instructions: 120000001 cycles: 32854029 heartbeat IPC: 3.645 cumulative IPC: 3.439 (Simulation time: 00 hr 54 min 40 sec)
Heartbeat CPU 0 instructions: 130000003 cycles: 35824217 heartbeat IPC: 3.367 cumulative IPC: 3.43 (Simulation time: 00 hr 59 min 34 sec)
Heartbeat CPU 0 instructions: 140000002 cycles: 38692069 heartbeat IPC: 3.487 cumulative IPC: 3.436 (Simulation time: 01 hr 04 min 21 sec)
Heartbeat CPU 0 instructions: 150000001 cycles: 41507676 heartbeat IPC: 3.552 cumulative IPC: 3.447 (Simulation time: 01 hr 09 min 19 sec)
Heartbeat CPU 0 instructions: 160000000 cycles: 44462470 heartbeat IPC: 3.384 cumulative IPC: 3.442 (Simulation time: 01 hr 14 min 10 sec)
Heartbeat CPU 0 instructions: 170000001 cycles: 47434950 heartbeat IPC: 3.364 cumulative IPC: 3.435 (Simulation time: 01 hr 19 min 03 sec)
Heartbeat CPU 0 instructions: 180000000 cycles: 50273974 heartbeat IPC: 3.522 cumulative IPC: 3.442 (Simulation time: 01 hr 23 min 55 sec)
Heartbeat CPU 0 instructions: 190000002 cycles: 53017906 heartbeat IPC: 3.644 cumulative IPC: 3.455 (Simulation time: 01 hr 28 min 44 sec)
Heartbeat CPU 0 instructions: 200000002 cycles: 55904263 heartbeat IPC: 3.465 cumulative IPC: 3.456 (Simulation time: 01 hr 33 min 36 sec)
Heartbeat CPU 0 instructions: 210000000 cycles: 58822727 heartbeat IPC: 3.426 cumulative IPC: 3.454 (Simulation time: 01 hr 38 min 26 sec)
Heartbeat CPU 0 instructions: 220000001 cycles: 61629922 heartbeat IPC: 3.562 cumulative IPC: 3.46 (Simulation time: 01 hr 43 min 16 sec)
Heartbeat CPU 0 instructions: 230000002 cycles: 64571429 heartbeat IPC: 3.4 cumulative IPC: 3.457 (Simulation time: 01 hr 48 min 12 sec)
Heartbeat CPU 0 instructions: 240000004 cycles: 67572417 heartbeat IPC: 3.332 cumulative IPC: 3.45 (Simulation time: 01 hr 53 min 09 sec)
Heartbeat CPU 0 instructions: 250000003 cycles: 70554511 heartbeat IPC: 3.353 cumulative IPC: 3.445 (Simulation time: 01 hr 58 min 01 sec)
Heartbeat CPU 0 instructions: 260000001 cycles: 73385762 heartbeat IPC: 3.532 cumulative IPC: 3.449 (Simulation time: 02 hr 02 min 50 sec)
Heartbeat CPU 0 instructions: 270000002 cycles: 78985473 heartbeat IPC: 1.786 cumulative IPC: 3.309 (Simulation time: 02 hr 09 min 32 sec)
Heartbeat CPU 0 instructions: 280000000 cycles: 87300179 heartbeat IPC: 1.203 cumulative IPC: 3.075 (Simulation time: 02 hr 18 min 18 sec)
Heartbeat CPU 0 instructions: 290000000 cycles: 93970374 heartbeat IPC: 1.499 cumulative IPC: 2.946 (Simulation time: 02 hr 26 min 01 sec)
Heartbeat CPU 0 instructions: 300000003 cycles: 98858329 heartbeat IPC: 2.046 cumulative IPC: 2.895 (Simulation time: 02 hr 32 min 43 sec)
Heartbeat CPU 0 instructions: 310000001 cycles: 105992211 heartbeat IPC: 1.402 cumulative IPC: 2.781 (Simulation time: 02 hr 40 min 59 sec)
Heartbeat CPU 0 instructions: 320000004 cycles: 109657173 heartbeat IPC: 2.729 cumulative IPC: 2.779 (Simulation time: 02 hr 46 min 36 sec)
Heartbeat CPU 0 instructions: 330000000 cycles: 112790962 heartbeat IPC: 3.191 cumulative IPC: 2.792 (Simulation time: 02 hr 51 min 55 sec)
Heartbeat CPU 0 instructions: 340000001 cycles: 115788601 heartbeat IPC: 3.336 cumulative IPC: 2.808 (Simulation time: 02 hr 57 min 11 sec)
Heartbeat CPU 0 instructions: 350000000 cycles: 118921047 heartbeat IPC: 3.192 cumulative IPC: 2.819 (Simulation time: 03 hr 02 min 21 sec)
Heartbeat CPU 0 instructions: 360000004 cycles: 121839787 heartbeat IPC: 3.426 cumulative IPC: 2.835 (Simulation time: 03 hr 07 min 18 sec)
Heartbeat CPU 0 instructions: 370000001 cycles: 124716436 heartbeat IPC: 3.476 cumulative IPC: 2.852 (Simulation time: 03 hr 12 min 14 sec)
Heartbeat CPU 0 instructions: 380000004 cycles: 127605802 heartbeat IPC: 3.461 cumulative IPC: 2.867 (Simulation time: 03 hr 17 min 11 sec)
Heartbeat CPU 0 instructions: 390000002 cycles: 130499530 heartbeat IPC: 3.456 cumulative IPC: 2.881 (Simulation time: 03 hr 22 min 10 sec)
Heartbeat CPU 0 instructions: 400000000 cycles: 133441480 heartbeat IPC: 3.399 cumulative IPC: 2.894 (Simulation time: 03 hr 27 min 09 sec)
Heartbeat CPU 0 instructions: 410000000 cycles: 137653482 heartbeat IPC: 2.374 cumulative IPC: 2.876 (Simulation time: 03 hr 33 min 05 sec)
Heartbeat CPU 0 instructions: 420000003 cycles: 142672317 heartbeat IPC: 1.992 cumulative IPC: 2.842 (Simulation time: 03 hr 39 min 45 sec)
Heartbeat CPU 0 instructions: 430000000 cycles: 147106071 heartbeat IPC: 2.255 cumulative IPC: 2.823 (Simulation time: 03 hr 46 min 12 sec)
Heartbeat CPU 0 instructions: 440000004 cycles: 151379320 heartbeat IPC: 2.34 cumulative IPC: 2.808 (Simulation time: 03 hr 52 min 26 sec)
Heartbeat CPU 0 instructions: 450000001 cycles: 155582354 heartbeat IPC: 2.379 cumulative IPC: 2.796 (Simulation time: 03 hr 58 min 36 sec)
Heartbeat CPU 0 instructions: 460000002 cycles: 161184493 heartbeat IPC: 1.785 cumulative IPC: 2.758 (Simulation time: 04 hr 05 min 47 sec)
Heartbeat CPU 0 instructions: 470000003 cycles: 166559991 heartbeat IPC: 1.86 cumulative IPC: 2.726 (Simulation time: 04 hr 12 min 42 sec)
Heartbeat CPU 0 instructions: 480000000 cycles: 169723554 heartbeat IPC: 3.161 cumulative IPC: 2.735 (Simulation time: 04 hr 17 min 49 sec)
Heartbeat CPU 0 instructions: 490000001 cycles: 173010342 heartbeat IPC: 3.042 cumulative IPC: 2.741 (Simulation time: 04 hr 23 min 03 sec)
Heartbeat CPU 0 instructions: 500000002 cycles: 176065805 heartbeat IPC: 3.273 cumulative IPC: 2.751 (Simulation time: 04 hr 28 min 18 sec)
Heartbeat CPU 0 instructions: 510000000 cycles: 179049189 heartbeat IPC: 3.352 cumulative IPC: 2.762 (Simulation time: 04 hr 33 min 22 sec)
Heartbeat CPU 0 instructions: 520000000 cycles: 182013521 heartbeat IPC: 3.373 cumulative IPC: 2.773 (Simulation time: 04 hr 38 min 22 sec)
Heartbeat CPU 0 instructions: 530000001 cycles: 187016891 heartbeat IPC: 1.999 cumulative IPC: 2.75 (Simulation time: 04 hr 45 min 03 sec)
Heartbeat CPU 0 instructions: 540000000 cycles: 192004166 heartbeat IPC: 2.005 cumulative IPC: 2.73 (Simulation time: 04 hr 51 min 43 sec)
Heartbeat CPU 0 instructions: 550000004 cycles: 198329181 heartbeat IPC: 1.581 cumulative IPC: 2.691 (Simulation time: 04 hr 59 min 19 sec)
Heartbeat CPU 0 instructions: 560000004 cycles: 201597147 heartbeat IPC: 3.06 cumulative IPC: 2.697 (Simulation time: 05 hr 04 min 23 sec)
Heartbeat CPU 0 instructions: 570000002 cycles: 204399230 heartbeat IPC: 3.569 cumulative IPC: 2.71 (Simulation time: 05 hr 09 min 25 sec)
Heartbeat CPU 0 instructions: 580000000 cycles: 207292200 heartbeat IPC: 3.457 cumulative IPC: 2.721 (Simulation time: 05 hr 14 min 16 sec)
Heartbeat CPU 0 instructions: 590000001 cycles: 210185388 heartbeat IPC: 3.456 cumulative IPC: 2.732 (Simulation time: 05 hr 19 min 08 sec)
Heartbeat CPU 0 instructions: 600000003 cycles: 212859408 heartbeat IPC: 3.74 cumulative IPC: 2.745 (Simulation time: 05 hr 23 min 55 sec)
Heartbeat CPU 0 instructions: 610000001 cycles: 215698007 heartbeat IPC: 3.523 cumulative IPC: 2.756 (Simulation time: 05 hr 28 min 47 sec)
Heartbeat CPU 0 instructions: 620000004 cycles: 218629518 heartbeat IPC: 3.411 cumulative IPC: 2.765 (Simulation time: 05 hr 33 min 41 sec)
Heartbeat CPU 0 instructions: 630000002 cycles: 221422997 heartbeat IPC: 3.58 cumulative IPC: 2.776 (Simulation time: 05 hr 38 min 31 sec)
Heartbeat CPU 0 instructions: 640000004 cycles: 224453936 heartbeat IPC: 3.299 cumulative IPC: 2.784 (Simulation time: 05 hr 43 min 30 sec)
Heartbeat CPU 0 instructions: 650000001 cycles: 227154936 heartbeat IPC: 3.702 cumulative IPC: 2.795 (Simulation time: 05 hr 48 min 16 sec)
Simulation finished CPU 0 instructions: 600000001 cycles: 214654874 cumulative IPC: 2.795 (Simulation time: 05 hr 48 min 16 sec)
Simulation complete CPU 0 instructions: 600000001 cycles: 214654874 cumulative IPC: 2.795 (Simulation time: 05 hr 48 min 16 sec)

ChampSim completed all CPUs

=== Simulation ===
CPU 0 runs traces/400.perlbench-50B.champsimtrace.xz
Region of Interest Statistics

CPU 0 cumulative IPC: 2.795 instructions: 600000001 cycles: 214654874
CPU 0 Branch Prediction Accuracy: 99.01% MPKI: 2.04 Average ROB Occupancy at Mispredict: 93.4
Branch type MPKI
BRANCH_DIRECT_JUMP: 0.0176
BRANCH_INDIRECT: 0.38
BRANCH_CONDITIONAL: 1.19
BRANCH_DIRECT_CALL: 0.0067
BRANCH_INDIRECT_CALL: 0.431
BRANCH_RETURN: 0.0161

LLC TOTAL        ACCESS:    1199412 HIT:     967186 MISS:     232226
LLC LOAD         ACCESS:     580124 HIT:     491617 MISS:      88507
LLC RFO          ACCESS:      46951 HIT:      36798 MISS:      10153
LLC PREFETCH     ACCESS:     423684 HIT:     301512 MISS:     122172
LLC WRITE        ACCESS:     126626 HIT:     125511 MISS:       1115
LLC TRANSLATION  ACCESS:      22027 HIT:      11748 MISS:      10279
LLC PREFETCH REQUESTED:     423935 ISSUED:     423684 USEFUL:      36653 USELESS:      40586
LLC AVERAGE MISS LATENCY: 690.3 cycles
cpu0_DTLB TOTAL        ACCESS:  133224079 HIT:  131869296 MISS:    1354783
cpu0_DTLB LOAD         ACCESS:  133224079 HIT:  131869296 MISS:    1354783
cpu0_DTLB RFO          ACCESS:          0 HIT:          0 MISS:          0
cpu0_DTLB PREFETCH     ACCESS:          0 HIT:          0 MISS:          0
cpu0_DTLB WRITE        ACCESS:          0 HIT:          0 MISS:          0
cpu0_DTLB TRANSLATION  ACCESS:          0 HIT:          0 MISS:          0
cpu0_DTLB PREFETCH REQUESTED:          0 ISSUED:          0 USEFUL:          0 USELESS:          0
cpu0_DTLB AVERAGE MISS LATENCY: 10.48 cycles
cpu0_ITLB TOTAL        ACCESS:    8985613 HIT:    8776351 MISS:     209262
cpu0_ITLB LOAD         ACCESS:    8985613 HIT:    8776351 MISS:     209262
cpu0_ITLB RFO          ACCESS:          0 HIT:          0 MISS:          0
cpu0_ITLB PREFETCH     ACCESS:          0 HIT:          0 MISS:          0
cpu0_ITLB WRITE        ACCESS:          0 HIT:          0 MISS:          0
cpu0_ITLB TRANSLATION  ACCESS:          0 HIT:          0 MISS:          0
cpu0_ITLB PREFETCH REQUESTED:          0 ISSUED:          0 USEFUL:          0 USELESS:          0
cpu0_ITLB AVERAGE MISS LATENCY: 2.612 cycles
cpu0_L1D TOTAL        ACCESS:  178289100 HIT:  174551870 MISS:    3737230
cpu0_L1D LOAD         ACCESS:   92769030 HIT:   89700726 MISS:    3068304
cpu0_L1D RFO          ACCESS:          0 HIT:          0 MISS:          0
cpu0_L1D PREFETCH     ACCESS:          0 HIT:          0 MISS:          0
cpu0_L1D WRITE        ACCESS:   85491542 HIT:   84849720 MISS:     641822
cpu0_L1D TRANSLATION  ACCESS:      28528 HIT:       1424 MISS:      27104
cpu0_L1D PREFETCH REQUESTED:          0 ISSUED:          0 USEFUL:          0 USELESS:          0
cpu0_L1D AVERAGE MISS LATENCY: 25.4 cycles
cpu0_L1I TOTAL        ACCESS:   10506058 HIT:    8607467 MISS:    1898591
cpu0_L1I LOAD         ACCESS:   10506058 HIT:    8607467 MISS:    1898591
cpu0_L1I RFO          ACCESS:          0 HIT:          0 MISS:          0
cpu0_L1I PREFETCH     ACCESS:          0 HIT:          0 MISS:          0
cpu0_L1I WRITE        ACCESS:          0 HIT:          0 MISS:          0
cpu0_L1I TRANSLATION  ACCESS:          0 HIT:          0 MISS:          0
cpu0_L1I PREFETCH REQUESTED:          0 ISSUED:          0 USEFUL:          0 USELESS:          0
cpu0_L1I AVERAGE MISS LATENCY: 8.37 cycles
cpu0_L2C TOTAL        ACCESS:    3840364 HIT:    3187971 MISS:     652393
cpu0_L2C LOAD         ACCESS:    3103793 HIT:    2523669 MISS:     580124
cpu0_L2C RFO          ACCESS:     194828 HIT:     147877 MISS:      46951
cpu0_L2C PREFETCH     ACCESS:          0 HIT:          0 MISS:          0
cpu0_L2C WRITE        ACCESS:     514714 HIT:     511423 MISS:       3291
cpu0_L2C TRANSLATION  ACCESS:      27029 HIT:       5002 MISS:      22027
cpu0_L2C PREFETCH REQUESTED:          0 ISSUED:          0 USEFUL:          0 USELESS:          0
cpu0_L2C AVERAGE MISS LATENCY: 131.7 cycles
cpu0_STLB TOTAL        ACCESS:    1009843 HIT:     983153 MISS:      26690
cpu0_STLB LOAD         ACCESS:    1009843 HIT:     983153 MISS:      26690
cpu0_STLB RFO          ACCESS:          0 HIT:          0 MISS:          0
cpu0_STLB PREFETCH     ACCESS:          0 HIT:          0 MISS:          0
cpu0_STLB WRITE        ACCESS:          0 HIT:          0 MISS:          0
cpu0_STLB TRANSLATION  ACCESS:          0 HIT:          0 MISS:          0
cpu0_STLB PREFETCH REQUESTED:          0 ISSUED:          0 USEFUL:          0 USELESS:          0
cpu0_STLB AVERAGE MISS LATENCY: 320.9 cycles

DRAM Statistics

Channel 0 RQ ROW_BUFFER_HIT:      90746
  ROW_BUFFER_MISS:     132842
 AVG DBUS CONGESTED CYCLE: 3.892
WQ ROW_BUFFER_HIT: Channel 0 
  ROW_BUFFER_MISS:       2350
  FULL:       5325
