WARNING: physical memory size is smaller than virtual memory size.

*** ChampSim Multicore Out-of-Order Simulator ***
Warmup Instructions: 50000000
Simulation Instructions: 600000000
Number of CPUs: 1
Page size: 4096

Off-chip DRAM Size: 4 GiB Channels: 1 Width: 64-bit Data Race: 3200 MT/s
Heartbeat CPU 0 instructions: 10000000 cycles: 2500061 heartbeat IPC: 4 cumulative IPC: 4 (Simulation time: 00 hr 03 min 16 sec)
Heartbeat CPU 0 instructions: 20000000 cycles: 5000061 heartbeat IPC: 4 cumulative IPC: 4 (Simulation time: 00 hr 06 min 49 sec)
Heartbeat CPU 0 instructions: 30000000 cycles: 7500061 heartbeat IPC: 4 cumulative IPC: 4 (Simulation time: 00 hr 10 min 02 sec)
Heartbeat CPU 0 instructions: 40000000 cycles: 10000061 heartbeat IPC: 4 cumulative IPC: 4 (Simulation time: 00 hr 13 min 16 sec)
Heartbeat CPU 0 instructions: 50000000 cycles: 12500061 heartbeat IPC: 4 cumulative IPC: 4 (Simulation time: 00 hr 16 min 31 sec)
Warmup finished CPU 0 instructions: 50000000 cycles: 12500062 cumulative IPC: 4 (Simulation time: 00 hr 16 min 31 sec)
Warmup complete CPU 0 instructions: 50000000 cycles: 12500062 cumulative IPC: 4 (Simulation time: 00 hr 16 min 31 sec)
Heartbeat CPU 0 instructions: 60000002 cycles: 16435783 heartbeat IPC: 2.541 cumulative IPC: 2.541 (Simulation time: 00 hr 21 min 11 sec)
Heartbeat CPU 0 instructions: 70000003 cycles: 20749204 heartbeat IPC: 2.318 cumulative IPC: 2.424 (Simulation time: 00 hr 25 min 58 sec)
Heartbeat CPU 0 instructions: 80000003 cycles: 25212938 heartbeat IPC: 2.24 cumulative IPC: 2.36 (Simulation time: 00 hr 30 min 42 sec)
Heartbeat CPU 0 instructions: 90000000 cycles: 28902625 heartbeat IPC: 2.71 cumulative IPC: 2.439 (Simulation time: 00 hr 35 min 00 sec)
Heartbeat CPU 0 instructions: 100000003 cycles: 32797283 heartbeat IPC: 2.568 cumulative IPC: 2.463 (Simulation time: 00 hr 39 min 48 sec)
Heartbeat CPU 0 instructions: 110000002 cycles: 36888882 heartbeat IPC: 2.444 cumulative IPC: 2.46 (Simulation time: 00 hr 44 min 23 sec)
Heartbeat CPU 0 instructions: 120000001 cycles: 40602045 heartbeat IPC: 2.693 cumulative IPC: 2.491 (Simulation time: 00 hr 48 min 45 sec)
Heartbeat CPU 0 instructions: 130000003 cycles: 44366187 heartbeat IPC: 2.657 cumulative IPC: 2.511 (Simulation time: 00 hr 53 min 23 sec)
Heartbeat CPU 0 instructions: 140000002 cycles: 48491614 heartbeat IPC: 2.424 cumulative IPC: 2.501 (Simulation time: 00 hr 58 min 11 sec)
Heartbeat CPU 0 instructions: 150000001 cycles: 52535644 heartbeat IPC: 2.473 cumulative IPC: 2.498 (Simulation time: 01 hr 02 min 42 sec)
Heartbeat CPU 0 instructions: 160000000 cycles: 56184366 heartbeat IPC: 2.741 cumulative IPC: 2.518 (Simulation time: 01 hr 07 min 02 sec)
Heartbeat CPU 0 instructions: 170000001 cycles: 60350038 heartbeat IPC: 2.401 cumulative IPC: 2.508 (Simulation time: 01 hr 11 min 48 sec)
Heartbeat CPU 0 instructions: 180000001 cycles: 63805525 heartbeat IPC: 2.894 cumulative IPC: 2.534 (Simulation time: 01 hr 16 min 04 sec)
Heartbeat CPU 0 instructions: 190000002 cycles: 67382191 heartbeat IPC: 2.796 cumulative IPC: 2.551 (Simulation time: 01 hr 20 min 25 sec)
Heartbeat CPU 0 instructions: 200000002 cycles: 71153161 heartbeat IPC: 2.652 cumulative IPC: 2.557 (Simulation time: 01 hr 24 min 51 sec)
Heartbeat CPU 0 instructions: 210000000 cycles: 74788089 heartbeat IPC: 2.751 cumulative IPC: 2.569 (Simulation time: 01 hr 29 min 09 sec)
Heartbeat CPU 0 instructions: 220000001 cycles: 78655984 heartbeat IPC: 2.585 cumulative IPC: 2.57 (Simulation time: 01 hr 33 min 35 sec)
Heartbeat CPU 0 instructions: 230000002 cycles: 82491062 heartbeat IPC: 2.608 cumulative IPC: 2.572 (Simulation time: 01 hr 38 min 02 sec)
Heartbeat CPU 0 instructions: 240000001 cycles: 86693138 heartbeat IPC: 2.38 cumulative IPC: 2.561 (Simulation time: 01 hr 42 min 40 sec)
Heartbeat CPU 0 instructions: 250000003 cycles: 91251932 heartbeat IPC: 2.194 cumulative IPC: 2.54 (Simulation time: 01 hr 47 min 24 sec)
Heartbeat CPU 0 instructions: 260000000 cycles: 95043028 heartbeat IPC: 2.638 cumulative IPC: 2.544 (Simulation time: 01 hr 51 min 49 sec)
Heartbeat CPU 0 instructions: 270000003 cycles: 101666040 heartbeat IPC: 1.51 cumulative IPC: 2.467 (Simulation time: 01 hr 58 min 00 sec)
Heartbeat CPU 0 instructions: 280000000 cycles: 111310609 heartbeat IPC: 1.037 cumulative IPC: 2.328 (Simulation time: 02 hr 06 min 12 sec)
Heartbeat CPU 0 instructions: 290000000 cycles: 119920768 heartbeat IPC: 1.161 cumulative IPC: 2.234 (Simulation time: 02 hr 13 min 54 sec)
Heartbeat CPU 0 instructions: 300000003 cycles: 127000539 heartbeat IPC: 1.412 cumulative IPC: 2.183 (Simulation time: 02 hr 20 min 46 sec)
Heartbeat CPU 0 instructions: 310000004 cycles: 136813711 heartbeat IPC: 1.019 cumulative IPC: 2.091 (Simulation time: 02 hr 29 min 20 sec)
Heartbeat CPU 0 instructions: 320000004 cycles: 141686848 heartbeat IPC: 2.052 cumulative IPC: 2.09 (Simulation time: 02 hr 34 min 37 sec)
Heartbeat CPU 0 instructions: 330000000 cycles: 145702579 heartbeat IPC: 2.49 cumulative IPC: 2.102 (Simulation time: 02 hr 39 min 15 sec)
Heartbeat CPU 0 instructions: 340000001 cycles: 149665163 heartbeat IPC: 2.524 cumulative IPC: 2.114 (Simulation time: 02 hr 43 min 49 sec)
Heartbeat CPU 0 instructions: 350000004 cycles: 153740439 heartbeat IPC: 2.454 cumulative IPC: 2.124 (Simulation time: 02 hr 48 min 28 sec)
Heartbeat CPU 0 instructions: 360000003 cycles: 157556967 heartbeat IPC: 2.62 cumulative IPC: 2.137 (Simulation time: 02 hr 53 min 00 sec)
Heartbeat CPU 0 instructions: 370000001 cycles: 161350201 heartbeat IPC: 2.636 cumulative IPC: 2.15 (Simulation time: 02 hr 57 min 31 sec)
Heartbeat CPU 0 instructions: 380000004 cycles: 164999694 heartbeat IPC: 2.74 cumulative IPC: 2.164 (Simulation time: 03 hr 01 min 59 sec)
Heartbeat CPU 0 instructions: 390000002 cycles: 168715706 heartbeat IPC: 2.691 cumulative IPC: 2.176 (Simulation time: 03 hr 06 min 26 sec)
Heartbeat CPU 0 instructions: 400000000 cycles: 172720028 heartbeat IPC: 2.497 cumulative IPC: 2.184 (Simulation time: 03 hr 11 min 03 sec)
Heartbeat CPU 0 instructions: 410000000 cycles: 178638107 heartbeat IPC: 1.69 cumulative IPC: 2.167 (Simulation time: 03 hr 16 min 57 sec)
Heartbeat CPU 0 instructions: 420000003 cycles: 186556019 heartbeat IPC: 1.263 cumulative IPC: 2.126 (Simulation time: 03 hr 24 min 15 sec)
Heartbeat CPU 0 instructions: 430000000 cycles: 193102458 heartbeat IPC: 1.528 cumulative IPC: 2.104 (Simulation time: 03 hr 30 min 50 sec)
Heartbeat CPU 0 instructions: 440000004 cycles: 199143436 heartbeat IPC: 1.655 cumulative IPC: 2.09 (Simulation time: 03 hr 36 min 59 sec)
Heartbeat CPU 0 instructions: 450000001 cycles: 205452120 heartbeat IPC: 1.585 cumulative IPC: 2.073 (Simulation time: 03 hr 43 min 17 sec)
Heartbeat CPU 0 instructions: 460000002 cycles: 213565777 heartbeat IPC: 1.232 cumulative IPC: 2.039 (Simulation time: 03 hr 50 min 41 sec)
Heartbeat CPU 0 instructions: 470000003 cycles: 220461923 heartbeat IPC: 1.45 cumulative IPC: 2.02 (Simulation time: 03 hr 57 min 23 sec)
Heartbeat CPU 0 instructions: 480000003 cycles: 224398182 heartbeat IPC: 2.54 cumulative IPC: 2.029 (Simulation time: 04 hr 02 min 01 sec)
Heartbeat CPU 0 instructions: 490000001 cycles: 228656784 heartbeat IPC: 2.348 cumulative IPC: 2.036 (Simulation time: 04 hr 06 min 46 sec)
Heartbeat CPU 0 instructions: 500000002 cycles: 232719134 heartbeat IPC: 2.462 cumulative IPC: 2.043 (Simulation time: 04 hr 11 min 27 sec)
Heartbeat CPU 0 instructions: 510000000 cycles: 236599403 heartbeat IPC: 2.577 cumulative IPC: 2.053 (Simulation time: 04 hr 16 min 04 sec)
Heartbeat CPU 0 instructions: 520000000 cycles: 240636088 heartbeat IPC: 2.477 cumulative IPC: 2.06 (Simulation time: 04 hr 20 min 44 sec)
Heartbeat CPU 0 instructions: 530000001 cycles: 248846115 heartbeat IPC: 1.218 cumulative IPC: 2.031 (Simulation time: 04 hr 28 min 08 sec)
Heartbeat CPU 0 instructions: 540000000 cycles: 256774143 heartbeat IPC: 1.261 cumulative IPC: 2.006 (Simulation time: 04 hr 35 min 26 sec)
Heartbeat CPU 0 instructions: 550000004 cycles: 265211878 heartbeat IPC: 1.185 cumulative IPC: 1.979 (Simulation time: 04 hr 43 min 01 sec)
Heartbeat CPU 0 instructions: 560000004 cycles: 269088796 heartbeat IPC: 2.579 cumulative IPC: 1.988 (Simulation time: 04 hr 47 min 32 sec)
Heartbeat CPU 0 instructions: 570000001 cycles: 272184096 heartbeat IPC: 3.231 cumulative IPC: 2.002 (Simulation time: 04 hr 51 min 42 sec)
Heartbeat CPU 0 instructions: 580000003 cycles: 275653623 heartbeat IPC: 2.882 cumulative IPC: 2.014 (Simulation time: 04 hr 55 min 59 sec)
Heartbeat CPU 0 instructions: 590000002 cycles: 279218087 heartbeat IPC: 2.805 cumulative IPC: 2.025 (Simulation time: 05 hr 00 min 19 sec)
Heartbeat CPU 0 instructions: 600000003 cycles: 282245374 heartbeat IPC: 3.303 cumulative IPC: 2.039 (Simulation time: 05 hr 04 min 28 sec)
Heartbeat CPU 0 instructions: 610000001 cycles: 285708818 heartbeat IPC: 2.887 cumulative IPC: 2.05 (Simulation time: 05 hr 08 min 49 sec)
Heartbeat CPU 0 instructions: 620000000 cycles: 289686236 heartbeat IPC: 2.514 cumulative IPC: 2.056 (Simulation time: 05 hr 13 min 25 sec)
Heartbeat CPU 0 instructions: 630000002 cycles: 293021730 heartbeat IPC: 2.998 cumulative IPC: 2.068 (Simulation time: 05 hr 17 min 40 sec)
Heartbeat CPU 0 instructions: 640000004 cycles: 297007184 heartbeat IPC: 2.509 cumulative IPC: 2.074 (Simulation time: 05 hr 22 min 15 sec)
Heartbeat CPU 0 instructions: 650000001 cycles: 300812794 heartbeat IPC: 2.628 cumulative IPC: 2.081 (Simulation time: 05 hr 26 min 52 sec)
Simulation finished CPU 0 instructions: 600000001 cycles: 288312733 cumulative IPC: 2.081 (Simulation time: 05 hr 26 min 52 sec)
Simulation complete CPU 0 instructions: 600000001 cycles: 288312733 cumulative IPC: 2.081 (Simulation time: 05 hr 26 min 52 sec)

ChampSim completed all CPUs

=== Simulation ===
CPU 0 runs traces/400.perlbench-50B.champsimtrace.xz
Region of Interest Statistics

CPU 0 cumulative IPC: 2.081 instructions: 600000001 cycles: 288312733
CPU 0 Branch Prediction Accuracy: 96.2% MPKI: 7.839 Average ROB Occupancy at Mispredict: 43.1
Branch type MPKI
BRANCH_DIRECT_JUMP: 0.0176
BRANCH_INDIRECT: 0.38
BRANCH_CONDITIONAL: 6.99
BRANCH_DIRECT_CALL: 0.0067
BRANCH_INDIRECT_CALL: 0.431
BRANCH_RETURN: 0.0161

LLC TOTAL        ACCESS:    1353755 HIT:    1100119 MISS:     253636
LLC LOAD         ACCESS:     578550 HIT:     466021 MISS:     112529
LLC RFO          ACCESS:      47374 HIT:      36174 MISS:      11200
LLC PREFETCH     ACCESS:     578550 HIT:     458373 MISS:     120177
LLC WRITE        ACCESS:     127190 HIT:     127122 MISS:         68
LLC TRANSLATION  ACCESS:      22091 HIT:      12429 MISS:       9662
LLC PREFETCH REQUESTED:     578550 ISSUED:     578550 USEFUL:      48061 USELESS:      20871
LLC AVERAGE MISS LATENCY: 463.6 cycles
cpu0_DTLB TOTAL        ACCESS:  146524501 HIT:  145219412 MISS:    1305089
cpu0_DTLB LOAD         ACCESS:  146524501 HIT:  145219412 MISS:    1305089
cpu0_DTLB RFO          ACCESS:          0 HIT:          0 MISS:          0
cpu0_DTLB PREFETCH     ACCESS:          0 HIT:          0 MISS:          0
cpu0_DTLB WRITE        ACCESS:          0 HIT:          0 MISS:          0
cpu0_DTLB TRANSLATION  ACCESS:          0 HIT:          0 MISS:          0
cpu0_DTLB PREFETCH REQUESTED:          0 ISSUED:          0 USEFUL:          0 USELESS:          0
cpu0_DTLB AVERAGE MISS LATENCY: 10.35 cycles
cpu0_ITLB TOTAL        ACCESS:    8984624 HIT:    8800132 MISS:     184492
cpu0_ITLB LOAD         ACCESS:    8984624 HIT:    8800132 MISS:     184492
cpu0_ITLB RFO          ACCESS:          0 HIT:          0 MISS:          0
cpu0_ITLB PREFETCH     ACCESS:          0 HIT:          0 MISS:          0
cpu0_ITLB WRITE        ACCESS:          0 HIT:          0 MISS:          0
cpu0_ITLB TRANSLATION  ACCESS:          0 HIT:          0 MISS:          0
cpu0_ITLB PREFETCH REQUESTED:          0 ISSUED:          0 USEFUL:          0 USELESS:          0
cpu0_ITLB AVERAGE MISS LATENCY: 3.067 cycles
cpu0_L1D TOTAL        ACCESS:  193322747 HIT:  189686211 MISS:    3636536
cpu0_L1D LOAD         ACCESS:  107476386 HIT:  104480093 MISS:    2996293
cpu0_L1D RFO          ACCESS:          0 HIT:          0 MISS:          0
cpu0_L1D PREFETCH     ACCESS:          0 HIT:          0 MISS:          0
cpu0_L1D WRITE        ACCESS:   85817839 HIT:   85204693 MISS:     613146
cpu0_L1D TRANSLATION  ACCESS:      28522 HIT:       1425 MISS:      27097
cpu0_L1D PREFETCH REQUESTED:          0 ISSUED:          0 USEFUL:          0 USELESS:          0
cpu0_L1D AVERAGE MISS LATENCY: 25.39 cycles
cpu0_L1I TOTAL        ACCESS:   10419572 HIT:    8657894 MISS:    1761678
cpu0_L1I LOAD         ACCESS:   10419572 HIT:    8657894 MISS:    1761678
cpu0_L1I RFO          ACCESS:          0 HIT:          0 MISS:          0
cpu0_L1I PREFETCH     ACCESS:          0 HIT:          0 MISS:          0
cpu0_L1I WRITE        ACCESS:          0 HIT:          0 MISS:          0
cpu0_L1I TRANSLATION  ACCESS:          0 HIT:          0 MISS:          0
cpu0_L1I PREFETCH REQUESTED:          0 ISSUED:          0 USEFUL:          0 USELESS:          0
cpu0_L1I AVERAGE MISS LATENCY: 9.243 cycles
cpu0_L2C TOTAL        ACCESS:    3834719 HIT:    3183626 MISS:     651093
cpu0_L2C LOAD         ACCESS:    3104995 HIT:    2526445 MISS:     578550
cpu0_L2C RFO          ACCESS:     191518 HIT:     144143 MISS:      47375
cpu0_L2C PREFETCH     ACCESS:          0 HIT:          0 MISS:          0
cpu0_L2C WRITE        ACCESS:     511174 HIT:     508097 MISS:       3077
cpu0_L2C TRANSLATION  ACCESS:      27032 HIT:       4941 MISS:      22091
cpu0_L2C PREFETCH REQUESTED:          0 ISSUED:          0 USEFUL:          0 USELESS:          0
cpu0_L2C AVERAGE MISS LATENCY: 124.7 cycles
cpu0_STLB TOTAL        ACCESS:    1008322 HIT:     981629 MISS:      26693
cpu0_STLB LOAD         ACCESS:    1008322 HIT:     981629 MISS:      26693
cpu0_STLB RFO          ACCESS:          0 HIT:          0 MISS:          0
cpu0_STLB PREFETCH     ACCESS:          0 HIT:          0 MISS:          0
cpu0_STLB WRITE        ACCESS:          0 HIT:          0 MISS:          0
cpu0_STLB TRANSLATION  ACCESS:          0 HIT:          0 MISS:          0
cpu0_STLB PREFETCH REQUESTED:          0 ISSUED:          0 USEFUL:          0 USELESS:          0
cpu0_STLB AVERAGE MISS LATENCY: 280.9 cycles

DRAM Statistics

Channel 0 RQ ROW_BUFFER_HIT:      59080
  ROW_BUFFER_MISS:     156188
 AVG DBUS CONGESTED CYCLE: 3.819
WQ ROW_BUFFER_HIT: Channel 0 
  ROW_BUFFER_MISS:       4221
  FULL:       7595
