WARNING: physical memory size is smaller than virtual memory size.

*** ChampSim Multicore Out-of-Order Simulator ***
Warmup Instructions: 50000000
Simulation Instructions: 600000000
Number of CPUs: 1
Page size: 4096

CPU 0 Tage branch predictor
Off-chip DRAM Size: 4 GiB Channels: 1 Width: 64-bit Data Race: 3200 MT/s
Heartbeat CPU 0 instructions: 10000000 cycles: 2500061 heartbeat IPC: 4 cumulative IPC: 4 (Simulation time: 00 hr 00 min 41 sec)
Heartbeat CPU 0 instructions: 20000000 cycles: 5000061 heartbeat IPC: 4 cumulative IPC: 4 (Simulation time: 00 hr 01 min 22 sec)
Heartbeat CPU 0 instructions: 30000000 cycles: 7500061 heartbeat IPC: 4 cumulative IPC: 4 (Simulation time: 00 hr 02 min 00 sec)
Heartbeat CPU 0 instructions: 40000000 cycles: 10000061 heartbeat IPC: 4 cumulative IPC: 4 (Simulation time: 00 hr 02 min 41 sec)
Heartbeat CPU 0 instructions: 50000000 cycles: 12500061 heartbeat IPC: 4 cumulative IPC: 4 (Simulation time: 00 hr 03 min 20 sec)
Warmup finished CPU 0 instructions: 50000000 cycles: 12500062 cumulative IPC: 4 (Simulation time: 00 hr 03 min 20 sec)
Warmup complete CPU 0 instructions: 50000000 cycles: 12500062 cumulative IPC: 4 (Simulation time: 00 hr 03 min 20 sec)
Heartbeat CPU 0 instructions: 60000004 cycles: 15503677 heartbeat IPC: 3.329 cumulative IPC: 3.329 (Simulation time: 00 hr 04 min 06 sec)
Heartbeat CPU 0 instructions: 70000003 cycles: 18382317 heartbeat IPC: 3.474 cumulative IPC: 3.4 (Simulation time: 00 hr 04 min 51 sec)
Heartbeat CPU 0 instructions: 80000002 cycles: 21404747 heartbeat IPC: 3.309 cumulative IPC: 3.369 (Simulation time: 00 hr 05 min 36 sec)
Heartbeat CPU 0 instructions: 90000000 cycles: 24127135 heartbeat IPC: 3.673 cumulative IPC: 3.44 (Simulation time: 00 hr 06 min 21 sec)
Heartbeat CPU 0 instructions: 100000003 cycles: 26893697 heartbeat IPC: 3.615 cumulative IPC: 3.474 (Simulation time: 00 hr 07 min 07 sec)
Heartbeat CPU 0 instructions: 110000001 cycles: 29799971 heartbeat IPC: 3.441 cumulative IPC: 3.468 (Simulation time: 00 hr 07 min 51 sec)
Heartbeat CPU 0 instructions: 120000001 cycles: 32524189 heartbeat IPC: 3.671 cumulative IPC: 3.496 (Simulation time: 00 hr 08 min 36 sec)
Heartbeat CPU 0 instructions: 130000003 cycles: 35426960 heartbeat IPC: 3.445 cumulative IPC: 3.489 (Simulation time: 00 hr 09 min 21 sec)
Heartbeat CPU 0 instructions: 140000002 cycles: 38265022 heartbeat IPC: 3.524 cumulative IPC: 3.493 (Simulation time: 00 hr 10 min 07 sec)
Heartbeat CPU 0 instructions: 150000001 cycles: 41038933 heartbeat IPC: 3.605 cumulative IPC: 3.504 (Simulation time: 00 hr 10 min 52 sec)
Heartbeat CPU 0 instructions: 160000000 cycles: 43953820 heartbeat IPC: 3.431 cumulative IPC: 3.497 (Simulation time: 00 hr 11 min 38 sec)
Heartbeat CPU 0 instructions: 170000001 cycles: 46884845 heartbeat IPC: 3.412 cumulative IPC: 3.49 (Simulation time: 00 hr 12 min 24 sec)
Heartbeat CPU 0 instructions: 180000000 cycles: 49682531 heartbeat IPC: 3.574 cumulative IPC: 3.496 (Simulation time: 00 hr 13 min 10 sec)
Heartbeat CPU 0 instructions: 190000002 cycles: 52390539 heartbeat IPC: 3.693 cumulative IPC: 3.51 (Simulation time: 00 hr 13 min 55 sec)
Heartbeat CPU 0 instructions: 200000002 cycles: 55219937 heartbeat IPC: 3.534 cumulative IPC: 3.511 (Simulation time: 00 hr 14 min 41 sec)
Heartbeat CPU 0 instructions: 210000000 cycles: 58119126 heartbeat IPC: 3.449 cumulative IPC: 3.507 (Simulation time: 00 hr 15 min 29 sec)
Heartbeat CPU 0 instructions: 220000001 cycles: 60883566 heartbeat IPC: 3.617 cumulative IPC: 3.514 (Simulation time: 00 hr 16 min 16 sec)
Heartbeat CPU 0 instructions: 230000002 cycles: 63776820 heartbeat IPC: 3.456 cumulative IPC: 3.51 (Simulation time: 00 hr 17 min 02 sec)
Heartbeat CPU 0 instructions: 240000004 cycles: 66737011 heartbeat IPC: 3.378 cumulative IPC: 3.503 (Simulation time: 00 hr 17 min 49 sec)
Heartbeat CPU 0 instructions: 250000003 cycles: 69643379 heartbeat IPC: 3.441 cumulative IPC: 3.5 (Simulation time: 00 hr 18 min 35 sec)
Heartbeat CPU 0 instructions: 260000001 cycles: 72434967 heartbeat IPC: 3.582 cumulative IPC: 3.504 (Simulation time: 00 hr 19 min 20 sec)
Heartbeat CPU 0 instructions: 270000002 cycles: 77840334 heartbeat IPC: 1.85 cumulative IPC: 3.367 (Simulation time: 00 hr 20 min 23 sec)
Heartbeat CPU 0 instructions: 280000000 cycles: 85711076 heartbeat IPC: 1.271 cumulative IPC: 3.142 (Simulation time: 00 hr 21 min 41 sec)
Heartbeat CPU 0 instructions: 290000000 cycles: 92161938 heartbeat IPC: 1.55 cumulative IPC: 3.013 (Simulation time: 00 hr 22 min 51 sec)
Heartbeat CPU 0 instructions: 300000003 cycles: 97096409 heartbeat IPC: 2.027 cumulative IPC: 2.955 (Simulation time: 00 hr 23 min 55 sec)
Heartbeat CPU 0 instructions: 310000001 cycles: 104401939 heartbeat IPC: 1.369 cumulative IPC: 2.829 (Simulation time: 00 hr 25 min 12 sec)
Heartbeat CPU 0 instructions: 320000004 cycles: 108032493 heartbeat IPC: 2.754 cumulative IPC: 2.826 (Simulation time: 00 hr 26 min 03 sec)
Heartbeat CPU 0 instructions: 330000000 cycles: 111161999 heartbeat IPC: 3.195 cumulative IPC: 2.838 (Simulation time: 00 hr 26 min 51 sec)
Heartbeat CPU 0 instructions: 340000001 cycles: 114072353 heartbeat IPC: 3.436 cumulative IPC: 2.855 (Simulation time: 00 hr 27 min 38 sec)
Heartbeat CPU 0 instructions: 350000000 cycles: 117125988 heartbeat IPC: 3.275 cumulative IPC: 2.867 (Simulation time: 00 hr 28 min 27 sec)
Heartbeat CPU 0 instructions: 360000004 cycles: 120000913 heartbeat IPC: 3.478 cumulative IPC: 2.884 (Simulation time: 00 hr 29 min 15 sec)
Heartbeat CPU 0 instructions: 370000001 cycles: 122880570 heartbeat IPC: 3.473 cumulative IPC: 2.899 (Simulation time: 00 hr 30 min 04 sec)
Heartbeat CPU 0 instructions: 380000004 cycles: 125776318 heartbeat IPC: 3.453 cumulative IPC: 2.913 (Simulation time: 00 hr 30 min 54 sec)
Heartbeat CPU 0 instructions: 390000002 cycles: 128719541 heartbeat IPC: 3.398 cumulative IPC: 2.925 (Simulation time: 00 hr 31 min 45 sec)
Heartbeat CPU 0 instructions: 400000000 cycles: 131710917 heartbeat IPC: 3.343 cumulative IPC: 2.936 (Simulation time: 00 hr 32 min 32 sec)
Heartbeat CPU 0 instructions: 410000000 cycles: 136003133 heartbeat IPC: 2.33 cumulative IPC: 2.915 (Simulation time: 00 hr 33 min 26 sec)
Heartbeat CPU 0 instructions: 420000003 cycles: 141189656 heartbeat IPC: 1.928 cumulative IPC: 2.875 (Simulation time: 00 hr 34 min 28 sec)
Heartbeat CPU 0 instructions: 430000000 cycles: 145616826 heartbeat IPC: 2.259 cumulative IPC: 2.855 (Simulation time: 00 hr 35 min 27 sec)
Heartbeat CPU 0 instructions: 440000004 cycles: 149824549 heartbeat IPC: 2.377 cumulative IPC: 2.84 (Simulation time: 00 hr 36 min 25 sec)
Heartbeat CPU 0 instructions: 450000001 cycles: 154039664 heartbeat IPC: 2.372 cumulative IPC: 2.826 (Simulation time: 00 hr 37 min 23 sec)
Heartbeat CPU 0 instructions: 460000002 cycles: 159490814 heartbeat IPC: 1.834 cumulative IPC: 2.789 (Simulation time: 00 hr 38 min 31 sec)
Heartbeat CPU 0 instructions: 470000003 cycles: 164597576 heartbeat IPC: 1.958 cumulative IPC: 2.761 (Simulation time: 00 hr 39 min 34 sec)
Heartbeat CPU 0 instructions: 480000000 cycles: 167687901 heartbeat IPC: 3.236 cumulative IPC: 2.771 (Simulation time: 00 hr 40 min 23 sec)
Heartbeat CPU 0 instructions: 490000001 cycles: 170819965 heartbeat IPC: 3.193 cumulative IPC: 2.779 (Simulation time: 00 hr 41 min 11 sec)
Heartbeat CPU 0 instructions: 500000002 cycles: 173858758 heartbeat IPC: 3.291 cumulative IPC: 2.789 (Simulation time: 00 hr 41 min 59 sec)
Heartbeat CPU 0 instructions: 510000000 cycles: 176905226 heartbeat IPC: 3.282 cumulative IPC: 2.798 (Simulation time: 00 hr 42 min 47 sec)
Heartbeat CPU 0 instructions: 520000000 cycles: 179971503 heartbeat IPC: 3.261 cumulative IPC: 2.806 (Simulation time: 00 hr 43 min 35 sec)
Heartbeat CPU 0 instructions: 530000001 cycles: 185569959 heartbeat IPC: 1.786 cumulative IPC: 2.773 (Simulation time: 00 hr 44 min 40 sec)
Heartbeat CPU 0 instructions: 540000000 cycles: 191074767 heartbeat IPC: 1.817 cumulative IPC: 2.744 (Simulation time: 00 hr 45 min 47 sec)
Heartbeat CPU 0 instructions: 550000004 cycles: 197303146 heartbeat IPC: 1.606 cumulative IPC: 2.706 (Simulation time: 00 hr 46 min 57 sec)
Heartbeat CPU 0 instructions: 560000004 cycles: 200542815 heartbeat IPC: 3.087 cumulative IPC: 2.712 (Simulation time: 00 hr 47 min 44 sec)
Heartbeat CPU 0 instructions: 570000002 cycles: 203333295 heartbeat IPC: 3.584 cumulative IPC: 2.725 (Simulation time: 00 hr 48 min 30 sec)
Heartbeat CPU 0 instructions: 580000000 cycles: 206201116 heartbeat IPC: 3.487 cumulative IPC: 2.736 (Simulation time: 00 hr 49 min 18 sec)
Heartbeat CPU 0 instructions: 590000001 cycles: 209075415 heartbeat IPC: 3.479 cumulative IPC: 2.747 (Simulation time: 00 hr 50 min 06 sec)
Heartbeat CPU 0 instructions: 600000003 cycles: 211730010 heartbeat IPC: 3.767 cumulative IPC: 2.761 (Simulation time: 00 hr 50 min 52 sec)
Heartbeat CPU 0 instructions: 610000001 cycles: 214559541 heartbeat IPC: 3.534 cumulative IPC: 2.771 (Simulation time: 00 hr 51 min 42 sec)
Heartbeat CPU 0 instructions: 620000004 cycles: 217481808 heartbeat IPC: 3.422 cumulative IPC: 2.781 (Simulation time: 00 hr 52 min 29 sec)
Heartbeat CPU 0 instructions: 630000002 cycles: 220268106 heartbeat IPC: 3.589 cumulative IPC: 2.792 (Simulation time: 00 hr 53 min 17 sec)
Heartbeat CPU 0 instructions: 640000004 cycles: 223285517 heartbeat IPC: 3.314 cumulative IPC: 2.799 (Simulation time: 00 hr 54 min 07 sec)
Heartbeat CPU 0 instructions: 650000001 cycles: 225981544 heartbeat IPC: 3.709 cumulative IPC: 2.811 (Simulation time: 00 hr 54 min 56 sec)
Simulation finished CPU 0 instructions: 600000001 cycles: 213481483 cumulative IPC: 2.811 (Simulation time: 00 hr 54 min 56 sec)
Simulation complete CPU 0 instructions: 600000001 cycles: 213481483 cumulative IPC: 2.811 (Simulation time: 00 hr 54 min 56 sec)

ChampSim completed all CPUs

=== Simulation ===
CPU 0 runs traces/400.perlbench-50B.champsimtrace.xz
Region of Interest Statistics

CPU 0 cumulative IPC: 2.811 instructions: 600000001 cycles: 213481483
CPU 0 Branch Prediction Accuracy: 99.01% MPKI: 2.04 Average ROB Occupancy at Mispredict: 93.34
Branch type MPKI
BRANCH_DIRECT_JUMP: 0.0176
BRANCH_INDIRECT: 0.38
BRANCH_CONDITIONAL: 1.19
BRANCH_DIRECT_CALL: 0.0067
BRANCH_INDIRECT_CALL: 0.431
BRANCH_RETURN: 0.0161

LLC TOTAL        ACCESS:    1354697 HIT:    1124785 MISS:     229912
LLC LOAD         ACCESS:     578878 HIT:     477835 MISS:     101043
LLC RFO          ACCESS:      47485 HIT:      37423 MISS:      10062
LLC PREFETCH     ACCESS:     578878 HIT:     471152 MISS:     107726
LLC WRITE        ACCESS:     127362 HIT:     127320 MISS:         42
LLC TRANSLATION  ACCESS:      22094 HIT:      11055 MISS:      11039
LLC PREFETCH REQUESTED:     578878 ISSUED:     578878 USEFUL:      42043 USELESS:      14189
LLC AVERAGE MISS LATENCY: 517.7 cycles
cpu0_DTLB TOTAL        ACCESS:  133229007 HIT:  131875460 MISS:    1353547
cpu0_DTLB LOAD         ACCESS:  133229007 HIT:  131875460 MISS:    1353547
cpu0_DTLB RFO          ACCESS:          0 HIT:          0 MISS:          0
cpu0_DTLB PREFETCH     ACCESS:          0 HIT:          0 MISS:          0
cpu0_DTLB WRITE        ACCESS:          0 HIT:          0 MISS:          0
cpu0_DTLB TRANSLATION  ACCESS:          0 HIT:          0 MISS:          0
cpu0_DTLB PREFETCH REQUESTED:          0 ISSUED:          0 USEFUL:          0 USELESS:          0
cpu0_DTLB AVERAGE MISS LATENCY: 10.48 cycles
cpu0_ITLB TOTAL        ACCESS:    8984349 HIT:    8774839 MISS:     209510
cpu0_ITLB LOAD         ACCESS:    8984349 HIT:    8774839 MISS:     209510
cpu0_ITLB RFO          ACCESS:          0 HIT:          0 MISS:          0
cpu0_ITLB PREFETCH     ACCESS:          0 HIT:          0 MISS:          0
cpu0_ITLB WRITE        ACCESS:          0 HIT:          0 MISS:          0
cpu0_ITLB TRANSLATION  ACCESS:          0 HIT:          0 MISS:          0
cpu0_ITLB PREFETCH REQUESTED:          0 ISSUED:          0 USEFUL:          0 USELESS:          0
cpu0_ITLB AVERAGE MISS LATENCY: 2.675 cycles
cpu0_L1D TOTAL        ACCESS:  178295765 HIT:  174551350 MISS:    3744415
cpu0_L1D LOAD         ACCESS:   92775923 HIT:   89701157 MISS:    3074766
cpu0_L1D RFO          ACCESS:          0 HIT:          0 MISS:          0
cpu0_L1D PREFETCH     ACCESS:          0 HIT:          0 MISS:          0
cpu0_L1D WRITE        ACCESS:   85491307 HIT:   84848771 MISS:     642536
cpu0_L1D TRANSLATION  ACCESS:      28535 HIT:       1422 MISS:      27113
cpu0_L1D PREFETCH REQUESTED:          0 ISSUED:          0 USEFUL:          0 USELESS:          0
cpu0_L1D AVERAGE MISS LATENCY: 24.69 cycles
cpu0_L1I TOTAL        ACCESS:   10505187 HIT:    8606581 MISS:    1898606
cpu0_L1I LOAD         ACCESS:   10505187 HIT:    8606581 MISS:    1898606
cpu0_L1I RFO          ACCESS:          0 HIT:          0 MISS:          0
cpu0_L1I PREFETCH     ACCESS:          0 HIT:          0 MISS:          0
cpu0_L1I WRITE        ACCESS:          0 HIT:          0 MISS:          0
cpu0_L1I TRANSLATION  ACCESS:          0 HIT:          0 MISS:          0
cpu0_L1I PREFETCH REQUESTED:          0 ISSUED:          0 USEFUL:          0 USELESS:          0
cpu0_L1I AVERAGE MISS LATENCY: 8.308 cycles
cpu0_L2C TOTAL        ACCESS:    3840405 HIT:    3188991 MISS:     651414
cpu0_L2C LOAD         ACCESS:    3103849 HIT:    2524971 MISS:     578878
cpu0_L2C RFO          ACCESS:     194858 HIT:     147373 MISS:      47485
cpu0_L2C PREFETCH     ACCESS:          0 HIT:          0 MISS:          0
cpu0_L2C WRITE        ACCESS:     514665 HIT:     511708 MISS:       2957
cpu0_L2C TRANSLATION  ACCESS:      27033 HIT:       4939 MISS:      22094
cpu0_L2C PREFETCH REQUESTED:          0 ISSUED:          0 USEFUL:          0 USELESS:          0
cpu0_L2C AVERAGE MISS LATENCY: 128.7 cycles
cpu0_STLB TOTAL        ACCESS:    1009838 HIT:     983147 MISS:      26691
cpu0_STLB LOAD         ACCESS:    1009838 HIT:     983147 MISS:      26691
cpu0_STLB RFO          ACCESS:          0 HIT:          0 MISS:          0
cpu0_STLB PREFETCH     ACCESS:          0 HIT:          0 MISS:          0
cpu0_STLB WRITE        ACCESS:          0 HIT:          0 MISS:          0
cpu0_STLB TRANSLATION  ACCESS:          0 HIT:          0 MISS:          0
cpu0_STLB PREFETCH REQUESTED:          0 ISSUED:          0 USEFUL:          0 USELESS:          0
cpu0_STLB AVERAGE MISS LATENCY: 321.5 cycles

DRAM Statistics

Channel 0 RQ ROW_BUFFER_HIT:      52505
  ROW_BUFFER_MISS:     137512
 AVG DBUS CONGESTED CYCLE: 3.844
WQ ROW_BUFFER_HIT: Channel 0 
  ROW_BUFFER_MISS:       2750
  FULL:       5005
Final OPTGen Hits: 12852
Final OPTGen Access: 9779
Final OPTGEN Hit Rate: 131.425
