WARNING: physical memory size is smaller than virtual memory size.

*** ChampSim Multicore Out-of-Order Simulator ***
Warmup Instructions: 50000000
Simulation Instructions: 600000000
Number of CPUs: 1
Page size: 4096

CPU 0 Tage branch predictor
Off-chip DRAM Size: 4 GiB Channels: 1 Width: 64-bit Data Race: 3200 MT/s
Heartbeat CPU 0 instructions: 10000001 cycles: 2500318 heartbeat IPC: 3.999 cumulative IPC: 3.999 (Simulation time: 00 hr 00 min 42 sec)
Heartbeat CPU 0 instructions: 20000002 cycles: 5037108 heartbeat IPC: 3.942 cumulative IPC: 3.971 (Simulation time: 00 hr 01 min 25 sec)
Heartbeat CPU 0 instructions: 30000002 cycles: 7537108 heartbeat IPC: 4 cumulative IPC: 3.98 (Simulation time: 00 hr 02 min 04 sec)
Heartbeat CPU 0 instructions: 40000002 cycles: 10037108 heartbeat IPC: 4 cumulative IPC: 3.985 (Simulation time: 00 hr 02 min 45 sec)
Heartbeat CPU 0 instructions: 50000002 cycles: 12537108 heartbeat IPC: 4 cumulative IPC: 3.988 (Simulation time: 00 hr 03 min 23 sec)
Warmup finished CPU 0 instructions: 50000002 cycles: 12537109 cumulative IPC: 3.988 (Simulation time: 00 hr 03 min 23 sec)
Warmup complete CPU 0 instructions: 50000002 cycles: 12537109 cumulative IPC: 3.988 (Simulation time: 00 hr 03 min 23 sec)
Heartbeat CPU 0 instructions: 60000001 cycles: 15499494 heartbeat IPC: 3.376 cumulative IPC: 3.376 (Simulation time: 00 hr 04 min 11 sec)
Heartbeat CPU 0 instructions: 70000004 cycles: 18556956 heartbeat IPC: 3.271 cumulative IPC: 3.322 (Simulation time: 00 hr 05 min 01 sec)
Heartbeat CPU 0 instructions: 80000001 cycles: 21591359 heartbeat IPC: 3.296 cumulative IPC: 3.313 (Simulation time: 00 hr 05 min 50 sec)
Heartbeat CPU 0 instructions: 90000001 cycles: 24527111 heartbeat IPC: 3.406 cumulative IPC: 3.336 (Simulation time: 00 hr 06 min 40 sec)
Heartbeat CPU 0 instructions: 100000000 cycles: 27429341 heartbeat IPC: 3.446 cumulative IPC: 3.357 (Simulation time: 00 hr 07 min 28 sec)
Heartbeat CPU 0 instructions: 110000000 cycles: 30365014 heartbeat IPC: 3.406 cumulative IPC: 3.366 (Simulation time: 00 hr 08 min 17 sec)
Heartbeat CPU 0 instructions: 120000001 cycles: 33325769 heartbeat IPC: 3.378 cumulative IPC: 3.367 (Simulation time: 00 hr 09 min 05 sec)
Heartbeat CPU 0 instructions: 130000001 cycles: 36167345 heartbeat IPC: 3.519 cumulative IPC: 3.385 (Simulation time: 00 hr 09 min 49 sec)
Heartbeat CPU 0 instructions: 140000001 cycles: 39189303 heartbeat IPC: 3.309 cumulative IPC: 3.377 (Simulation time: 00 hr 10 min 33 sec)
Heartbeat CPU 0 instructions: 150000001 cycles: 42182268 heartbeat IPC: 3.341 cumulative IPC: 3.373 (Simulation time: 00 hr 11 min 16 sec)
Heartbeat CPU 0 instructions: 160000004 cycles: 45168226 heartbeat IPC: 3.349 cumulative IPC: 3.371 (Simulation time: 00 hr 11 min 58 sec)
Heartbeat CPU 0 instructions: 170000000 cycles: 50629553 heartbeat IPC: 1.831 cumulative IPC: 3.15 (Simulation time: 00 hr 12 min 53 sec)
Heartbeat CPU 0 instructions: 180000004 cycles: 55342857 heartbeat IPC: 2.122 cumulative IPC: 3.037 (Simulation time: 00 hr 13 min 45 sec)
Heartbeat CPU 0 instructions: 190000001 cycles: 59572981 heartbeat IPC: 2.364 cumulative IPC: 2.976 (Simulation time: 00 hr 14 min 37 sec)
Heartbeat CPU 0 instructions: 200000004 cycles: 62320261 heartbeat IPC: 3.64 cumulative IPC: 3.013 (Simulation time: 00 hr 15 min 18 sec)
Heartbeat CPU 0 instructions: 210000001 cycles: 65110591 heartbeat IPC: 3.584 cumulative IPC: 3.043 (Simulation time: 00 hr 16 min 00 sec)
Heartbeat CPU 0 instructions: 220000000 cycles: 67901649 heartbeat IPC: 3.583 cumulative IPC: 3.071 (Simulation time: 00 hr 16 min 41 sec)
Heartbeat CPU 0 instructions: 230000002 cycles: 70593770 heartbeat IPC: 3.715 cumulative IPC: 3.1 (Simulation time: 00 hr 17 min 20 sec)
Heartbeat CPU 0 instructions: 240000003 cycles: 73415477 heartbeat IPC: 3.544 cumulative IPC: 3.121 (Simulation time: 00 hr 18 min 02 sec)
Heartbeat CPU 0 instructions: 250000000 cycles: 76194380 heartbeat IPC: 3.599 cumulative IPC: 3.142 (Simulation time: 00 hr 18 min 43 sec)
Heartbeat CPU 0 instructions: 260000002 cycles: 78915363 heartbeat IPC: 3.675 cumulative IPC: 3.164 (Simulation time: 00 hr 19 min 24 sec)
Heartbeat CPU 0 instructions: 270000002 cycles: 81656486 heartbeat IPC: 3.648 cumulative IPC: 3.183 (Simulation time: 00 hr 20 min 05 sec)
Heartbeat CPU 0 instructions: 280000002 cycles: 84357173 heartbeat IPC: 3.703 cumulative IPC: 3.202 (Simulation time: 00 hr 20 min 45 sec)
Heartbeat CPU 0 instructions: 290000002 cycles: 87165009 heartbeat IPC: 3.561 cumulative IPC: 3.216 (Simulation time: 00 hr 21 min 25 sec)
Heartbeat CPU 0 instructions: 300000003 cycles: 89828695 heartbeat IPC: 3.754 cumulative IPC: 3.235 (Simulation time: 00 hr 22 min 06 sec)
Heartbeat CPU 0 instructions: 310000001 cycles: 92601439 heartbeat IPC: 3.607 cumulative IPC: 3.247 (Simulation time: 00 hr 22 min 47 sec)
Heartbeat CPU 0 instructions: 320000003 cycles: 95411100 heartbeat IPC: 3.559 cumulative IPC: 3.258 (Simulation time: 00 hr 23 min 28 sec)
Heartbeat CPU 0 instructions: 330000003 cycles: 98119104 heartbeat IPC: 3.693 cumulative IPC: 3.272 (Simulation time: 00 hr 24 min 08 sec)
Heartbeat CPU 0 instructions: 340000000 cycles: 102474867 heartbeat IPC: 2.296 cumulative IPC: 3.224 (Simulation time: 00 hr 24 min 59 sec)
Heartbeat CPU 0 instructions: 350000000 cycles: 107202521 heartbeat IPC: 2.115 cumulative IPC: 3.169 (Simulation time: 00 hr 26 min 42 sec)
Heartbeat CPU 0 instructions: 360000004 cycles: 111653830 heartbeat IPC: 2.247 cumulative IPC: 3.128 (Simulation time: 00 hr 28 min 16 sec)
Heartbeat CPU 0 instructions: 370000000 cycles: 114460033 heartbeat IPC: 3.564 cumulative IPC: 3.14 (Simulation time: 00 hr 29 min 33 sec)
Heartbeat CPU 0 instructions: 380000003 cycles: 117220402 heartbeat IPC: 3.623 cumulative IPC: 3.152 (Simulation time: 00 hr 30 min 52 sec)
Heartbeat CPU 0 instructions: 390000002 cycles: 120085839 heartbeat IPC: 3.49 cumulative IPC: 3.161 (Simulation time: 00 hr 32 min 11 sec)
Heartbeat CPU 0 instructions: 400000004 cycles: 122917755 heartbeat IPC: 3.531 cumulative IPC: 3.171 (Simulation time: 00 hr 33 min 29 sec)
Heartbeat CPU 0 instructions: 410000002 cycles: 125680257 heartbeat IPC: 3.62 cumulative IPC: 3.182 (Simulation time: 00 hr 34 min 22 sec)
Heartbeat CPU 0 instructions: 420000003 cycles: 128521252 heartbeat IPC: 3.52 cumulative IPC: 3.19 (Simulation time: 00 hr 35 min 03 sec)
Heartbeat CPU 0 instructions: 430000001 cycles: 131389326 heartbeat IPC: 3.487 cumulative IPC: 3.197 (Simulation time: 00 hr 35 min 44 sec)
Heartbeat CPU 0 instructions: 440000004 cycles: 134316807 heartbeat IPC: 3.416 cumulative IPC: 3.203 (Simulation time: 00 hr 36 min 25 sec)
Heartbeat CPU 0 instructions: 450000002 cycles: 137052844 heartbeat IPC: 3.655 cumulative IPC: 3.212 (Simulation time: 00 hr 37 min 07 sec)
Heartbeat CPU 0 instructions: 460000000 cycles: 139821802 heartbeat IPC: 3.611 cumulative IPC: 3.221 (Simulation time: 00 hr 37 min 48 sec)
Heartbeat CPU 0 instructions: 470000001 cycles: 142534508 heartbeat IPC: 3.686 cumulative IPC: 3.231 (Simulation time: 00 hr 38 min 28 sec)
Heartbeat CPU 0 instructions: 480000003 cycles: 145412591 heartbeat IPC: 3.475 cumulative IPC: 3.236 (Simulation time: 00 hr 39 min 09 sec)
Heartbeat CPU 0 instructions: 490000004 cycles: 148129481 heartbeat IPC: 3.681 cumulative IPC: 3.245 (Simulation time: 00 hr 39 min 49 sec)
Heartbeat CPU 0 instructions: 500000004 cycles: 151005490 heartbeat IPC: 3.477 cumulative IPC: 3.25 (Simulation time: 00 hr 40 min 30 sec)
Heartbeat CPU 0 instructions: 510000003 cycles: 153846150 heartbeat IPC: 3.52 cumulative IPC: 3.255 (Simulation time: 00 hr 41 min 11 sec)
Heartbeat CPU 0 instructions: 520000001 cycles: 156543895 heartbeat IPC: 3.707 cumulative IPC: 3.264 (Simulation time: 00 hr 41 min 52 sec)
Heartbeat CPU 0 instructions: 530000001 cycles: 159387604 heartbeat IPC: 3.517 cumulative IPC: 3.269 (Simulation time: 00 hr 42 min 33 sec)
Heartbeat CPU 0 instructions: 540000000 cycles: 162188544 heartbeat IPC: 3.57 cumulative IPC: 3.274 (Simulation time: 00 hr 43 min 14 sec)
Heartbeat CPU 0 instructions: 550000001 cycles: 165042235 heartbeat IPC: 3.504 cumulative IPC: 3.279 (Simulation time: 00 hr 43 min 55 sec)
Heartbeat CPU 0 instructions: 560000000 cycles: 167890343 heartbeat IPC: 3.511 cumulative IPC: 3.283 (Simulation time: 00 hr 44 min 36 sec)
Heartbeat CPU 0 instructions: 570000004 cycles: 171504401 heartbeat IPC: 2.767 cumulative IPC: 3.271 (Simulation time: 00 hr 45 min 22 sec)
Heartbeat CPU 0 instructions: 580000003 cycles: 176133344 heartbeat IPC: 2.16 cumulative IPC: 3.24 (Simulation time: 00 hr 46 min 15 sec)
Heartbeat CPU 0 instructions: 590000002 cycles: 181157183 heartbeat IPC: 1.991 cumulative IPC: 3.202 (Simulation time: 00 hr 47 min 10 sec)
Heartbeat CPU 0 instructions: 600000004 cycles: 184027991 heartbeat IPC: 3.483 cumulative IPC: 3.207 (Simulation time: 00 hr 47 min 51 sec)
Heartbeat CPU 0 instructions: 610000002 cycles: 186855361 heartbeat IPC: 3.537 cumulative IPC: 3.213 (Simulation time: 00 hr 48 min 31 sec)
Heartbeat CPU 0 instructions: 620000001 cycles: 189553102 heartbeat IPC: 3.707 cumulative IPC: 3.22 (Simulation time: 00 hr 49 min 11 sec)
Heartbeat CPU 0 instructions: 630000002 cycles: 192402868 heartbeat IPC: 3.509 cumulative IPC: 3.225 (Simulation time: 00 hr 49 min 52 sec)
Heartbeat CPU 0 instructions: 640000004 cycles: 195302024 heartbeat IPC: 3.449 cumulative IPC: 3.228 (Simulation time: 00 hr 50 min 33 sec)
Heartbeat CPU 0 instructions: 650000000 cycles: 198003574 heartbeat IPC: 3.702 cumulative IPC: 3.235 (Simulation time: 00 hr 51 min 13 sec)
Simulation finished CPU 0 instructions: 600000001 cycles: 185466467 cumulative IPC: 3.235 (Simulation time: 00 hr 51 min 13 sec)
Simulation complete CPU 0 instructions: 600000001 cycles: 185466467 cumulative IPC: 3.235 (Simulation time: 00 hr 51 min 13 sec)

ChampSim completed all CPUs

=== Simulation ===
CPU 0 runs traces/400.perlbench-41B.champsimtrace.xz
Region of Interest Statistics

CPU 0 cumulative IPC: 3.235 instructions: 600000001 cycles: 185466467
CPU 0 Branch Prediction Accuracy: 99.19% MPKI: 1.684 Average ROB Occupancy at Mispredict: 100.4
Branch type MPKI
BRANCH_DIRECT_JUMP: 0.0123
BRANCH_INDIRECT: 0.323
BRANCH_CONDITIONAL: 1.14
BRANCH_DIRECT_CALL: 0.0043
BRANCH_INDIRECT_CALL: 0.2
BRANCH_RETURN: 0.00828

LLC TOTAL        ACCESS:     594285 HIT:     544395 MISS:      49890
LLC LOAD         ACCESS:     403764 HIT:     369538 MISS:      34226
LLC RFO          ACCESS:      32551 HIT:      28382 MISS:       4169
LLC PREFETCH     ACCESS:      53161 HIT:      48309 MISS:       4852
LLC WRITE        ACCESS:      85647 HIT:      85611 MISS:         36
LLC TRANSLATION  ACCESS:      19162 HIT:      12555 MISS:       6607
LLC PREFETCH REQUESTED:      53161 ISSUED:      53161 USEFUL:       2890 USELESS:        235
LLC AVERAGE MISS LATENCY: 560.9 cycles
cpu0_DTLB TOTAL        ACCESS:  129753636 HIT:  129052613 MISS:     701023
cpu0_DTLB LOAD         ACCESS:  129753636 HIT:  129052613 MISS:     701023
cpu0_DTLB RFO          ACCESS:          0 HIT:          0 MISS:          0
cpu0_DTLB PREFETCH     ACCESS:          0 HIT:          0 MISS:          0
cpu0_DTLB WRITE        ACCESS:          0 HIT:          0 MISS:          0
cpu0_DTLB TRANSLATION  ACCESS:          0 HIT:          0 MISS:          0
cpu0_DTLB PREFETCH REQUESTED:          0 ISSUED:          0 USEFUL:          0 USELESS:          0
cpu0_DTLB AVERAGE MISS LATENCY: 10.17 cycles
cpu0_ITLB TOTAL        ACCESS:    4860398 HIT:    4798295 MISS:      62103
cpu0_ITLB LOAD         ACCESS:    4860398 HIT:    4798295 MISS:      62103
cpu0_ITLB RFO          ACCESS:          0 HIT:          0 MISS:          0
cpu0_ITLB PREFETCH     ACCESS:          0 HIT:          0 MISS:          0
cpu0_ITLB WRITE        ACCESS:          0 HIT:          0 MISS:          0
cpu0_ITLB TRANSLATION  ACCESS:          0 HIT:          0 MISS:          0
cpu0_ITLB PREFETCH REQUESTED:          0 ISSUED:          0 USEFUL:          0 USELESS:          0
cpu0_ITLB AVERAGE MISS LATENCY: 3.943 cycles
cpu0_L1D TOTAL        ACCESS:  174383894 HIT:  172657240 MISS:    1726654
cpu0_L1D LOAD         ACCESS:   91360723 HIT:   90014729 MISS:    1345994
cpu0_L1D RFO          ACCESS:          0 HIT:          0 MISS:          0
cpu0_L1D PREFETCH     ACCESS:          0 HIT:          0 MISS:          0
cpu0_L1D WRITE        ACCESS:   82998706 HIT:   82641448 MISS:     357258
cpu0_L1D TRANSLATION  ACCESS:      24465 HIT:       1063 MISS:      23402
cpu0_L1D PREFETCH REQUESTED:          0 ISSUED:          0 USEFUL:          0 USELESS:          0
cpu0_L1D AVERAGE MISS LATENCY: 21.95 cycles
cpu0_L1I TOTAL        ACCESS:    5640480 HIT:    4836431 MISS:     804049
cpu0_L1I LOAD         ACCESS:    5640480 HIT:    4836431 MISS:     804049
cpu0_L1I RFO          ACCESS:          0 HIT:          0 MISS:          0
cpu0_L1I PREFETCH     ACCESS:          0 HIT:          0 MISS:          0
cpu0_L1I WRITE        ACCESS:          0 HIT:          0 MISS:          0
cpu0_L1I TRANSLATION  ACCESS:          0 HIT:          0 MISS:          0
cpu0_L1I PREFETCH REQUESTED:          0 ISSUED:          0 USEFUL:          0 USELESS:          0
cpu0_L1I AVERAGE MISS LATENCY: 8.071 cycles
cpu0_L2C TOTAL        ACCESS:    1668489 HIT:    1211186 MISS:     457303
cpu0_L2C LOAD         ACCESS:    1315362 HIT:     911598 MISS:     403764
cpu0_L2C RFO          ACCESS:      89521 HIT:      56969 MISS:      32552
cpu0_L2C PREFETCH     ACCESS:          0 HIT:          0 MISS:          0
cpu0_L2C WRITE        ACCESS:     240284 HIT:     238459 MISS:       1825
cpu0_L2C TRANSLATION  ACCESS:      23322 HIT:       4160 MISS:      19162
cpu0_L2C PREFETCH REQUESTED:          0 ISSUED:          0 USEFUL:          0 USELESS:          0
cpu0_L2C AVERAGE MISS LATENCY: 74.69 cycles
cpu0_STLB TOTAL        ACCESS:     507847 HIT:     485059 MISS:      22788
cpu0_STLB LOAD         ACCESS:     507847 HIT:     485059 MISS:      22788
cpu0_STLB RFO          ACCESS:          0 HIT:          0 MISS:          0
cpu0_STLB PREFETCH     ACCESS:          0 HIT:          0 MISS:          0
cpu0_STLB WRITE        ACCESS:          0 HIT:          0 MISS:          0
cpu0_STLB TRANSLATION  ACCESS:          0 HIT:          0 MISS:          0
cpu0_STLB PREFETCH REQUESTED:          0 ISSUED:          0 USEFUL:          0 USELESS:          0
cpu0_STLB AVERAGE MISS LATENCY: 186.7 cycles

DRAM Statistics

Channel 0 RQ ROW_BUFFER_HIT:      13769
  ROW_BUFFER_MISS:      35169
 AVG DBUS CONGESTED CYCLE: 3.785
WQ ROW_BUFFER_HIT: Channel 0 
  ROW_BUFFER_MISS:        430
  FULL:        816
Final OPTGen Hits: 8041
Final OPTGen Access: 9254
Final OPTGEN Hit Rate: 86.8922
