WARNING: physical memory size is smaller than virtual memory size.

*** ChampSim Multicore Out-of-Order Simulator ***
Warmup Instructions: 50000000
Simulation Instructions: 600000000
Number of CPUs: 1
Page size: 4096

Off-chip DRAM Size: 4 GiB Channels: 1 Width: 64-bit Data Race: 3200 MT/s
Heartbeat CPU 0 instructions: 10000000 cycles: 2500062 heartbeat IPC: 4 cumulative IPC: 4 (Simulation time: 00 hr 01 min 22 sec)
Heartbeat CPU 0 instructions: 20000000 cycles: 5000062 heartbeat IPC: 4 cumulative IPC: 4 (Simulation time: 00 hr 03 min 36 sec)
Heartbeat CPU 0 instructions: 30000000 cycles: 7500062 heartbeat IPC: 4 cumulative IPC: 4 (Simulation time: 00 hr 06 min 34 sec)
Heartbeat CPU 0 instructions: 40000000 cycles: 10000062 heartbeat IPC: 4 cumulative IPC: 4 (Simulation time: 00 hr 10 min 03 sec)
Heartbeat CPU 0 instructions: 50000000 cycles: 12500062 heartbeat IPC: 4 cumulative IPC: 4 (Simulation time: 00 hr 13 min 31 sec)
Warmup finished CPU 0 instructions: 50000000 cycles: 12500063 cumulative IPC: 4 (Simulation time: 00 hr 13 min 31 sec)
Warmup complete CPU 0 instructions: 50000000 cycles: 12500063 cumulative IPC: 4 (Simulation time: 00 hr 13 min 31 sec)
Heartbeat CPU 0 instructions: 60000004 cycles: 15614205 heartbeat IPC: 3.211 cumulative IPC: 3.211 (Simulation time: 00 hr 17 min 49 sec)
Heartbeat CPU 0 instructions: 70000003 cycles: 18766214 heartbeat IPC: 3.173 cumulative IPC: 3.192 (Simulation time: 00 hr 22 min 03 sec)
Heartbeat CPU 0 instructions: 80000001 cycles: 22005071 heartbeat IPC: 3.088 cumulative IPC: 3.156 (Simulation time: 00 hr 26 min 23 sec)
Heartbeat CPU 0 instructions: 90000000 cycles: 24815786 heartbeat IPC: 3.558 cumulative IPC: 3.248 (Simulation time: 00 hr 30 min 27 sec)
Heartbeat CPU 0 instructions: 100000003 cycles: 27785591 heartbeat IPC: 3.367 cumulative IPC: 3.271 (Simulation time: 00 hr 34 min 38 sec)
Heartbeat CPU 0 instructions: 110000000 cycles: 30871925 heartbeat IPC: 3.24 cumulative IPC: 3.266 (Simulation time: 00 hr 38 min 49 sec)
Heartbeat CPU 0 instructions: 120000001 cycles: 33727385 heartbeat IPC: 3.502 cumulative IPC: 3.298 (Simulation time: 00 hr 42 min 57 sec)
Heartbeat CPU 0 instructions: 130000003 cycles: 36772025 heartbeat IPC: 3.284 cumulative IPC: 3.296 (Simulation time: 00 hr 47 min 10 sec)
Heartbeat CPU 0 instructions: 140000002 cycles: 39780687 heartbeat IPC: 3.324 cumulative IPC: 3.299 (Simulation time: 00 hr 51 min 21 sec)
Heartbeat CPU 0 instructions: 150000001 cycles: 42735669 heartbeat IPC: 3.384 cumulative IPC: 3.307 (Simulation time: 00 hr 55 min 30 sec)
Heartbeat CPU 0 instructions: 160000000 cycles: 45757352 heartbeat IPC: 3.309 cumulative IPC: 3.308 (Simulation time: 00 hr 59 min 39 sec)
Heartbeat CPU 0 instructions: 170000001 cycles: 48847515 heartbeat IPC: 3.236 cumulative IPC: 3.301 (Simulation time: 01 hr 03 min 54 sec)
Heartbeat CPU 0 instructions: 180000000 cycles: 51742572 heartbeat IPC: 3.454 cumulative IPC: 3.313 (Simulation time: 01 hr 08 min 04 sec)
Heartbeat CPU 0 instructions: 190000002 cycles: 54595383 heartbeat IPC: 3.505 cumulative IPC: 3.326 (Simulation time: 01 hr 12 min 16 sec)
Heartbeat CPU 0 instructions: 200000002 cycles: 57612429 heartbeat IPC: 3.315 cumulative IPC: 3.325 (Simulation time: 01 hr 16 min 29 sec)
Heartbeat CPU 0 instructions: 210000000 cycles: 60595304 heartbeat IPC: 3.352 cumulative IPC: 3.327 (Simulation time: 01 hr 20 min 42 sec)
Heartbeat CPU 0 instructions: 220000001 cycles: 63536955 heartbeat IPC: 3.399 cumulative IPC: 3.331 (Simulation time: 01 hr 24 min 51 sec)
Heartbeat CPU 0 instructions: 230000002 cycles: 66591716 heartbeat IPC: 3.274 cumulative IPC: 3.328 (Simulation time: 01 hr 29 min 03 sec)
Heartbeat CPU 0 instructions: 240000004 cycles: 69726680 heartbeat IPC: 3.19 cumulative IPC: 3.32 (Simulation time: 01 hr 33 min 19 sec)
Heartbeat CPU 0 instructions: 250000003 cycles: 72941275 heartbeat IPC: 3.111 cumulative IPC: 3.309 (Simulation time: 01 hr 37 min 35 sec)
Heartbeat CPU 0 instructions: 260000000 cycles: 75876198 heartbeat IPC: 3.407 cumulative IPC: 3.314 (Simulation time: 01 hr 41 min 47 sec)
Heartbeat CPU 0 instructions: 270000002 cycles: 81743292 heartbeat IPC: 1.704 cumulative IPC: 3.177 (Simulation time: 01 hr 47 min 51 sec)
Heartbeat CPU 0 instructions: 280000000 cycles: 90333957 heartbeat IPC: 1.164 cumulative IPC: 2.955 (Simulation time: 01 hr 55 min 59 sec)
Heartbeat CPU 0 instructions: 290000000 cycles: 97313817 heartbeat IPC: 1.433 cumulative IPC: 2.83 (Simulation time: 02 hr 03 min 07 sec)
Heartbeat CPU 0 instructions: 300000003 cycles: 102333715 heartbeat IPC: 1.992 cumulative IPC: 2.783 (Simulation time: 02 hr 09 min 09 sec)
Heartbeat CPU 0 instructions: 310000004 cycles: 109553241 heartbeat IPC: 1.385 cumulative IPC: 2.679 (Simulation time: 02 hr 16 min 43 sec)
Heartbeat CPU 0 instructions: 320000004 cycles: 113299540 heartbeat IPC: 2.669 cumulative IPC: 2.679 (Simulation time: 02 hr 21 min 39 sec)
Heartbeat CPU 0 instructions: 330000000 cycles: 116543173 heartbeat IPC: 3.083 cumulative IPC: 2.691 (Simulation time: 02 hr 26 min 08 sec)
Heartbeat CPU 0 instructions: 340000001 cycles: 119747740 heartbeat IPC: 3.121 cumulative IPC: 2.704 (Simulation time: 02 hr 30 min 35 sec)
Heartbeat CPU 0 instructions: 350000000 cycles: 123122035 heartbeat IPC: 2.964 cumulative IPC: 2.712 (Simulation time: 02 hr 35 min 08 sec)
Heartbeat CPU 0 instructions: 360000003 cycles: 126301012 heartbeat IPC: 3.146 cumulative IPC: 2.724 (Simulation time: 02 hr 39 min 32 sec)
Heartbeat CPU 0 instructions: 370000001 cycles: 129417391 heartbeat IPC: 3.209 cumulative IPC: 2.737 (Simulation time: 02 hr 43 min 55 sec)
Heartbeat CPU 0 instructions: 380000004 cycles: 132543785 heartbeat IPC: 3.199 cumulative IPC: 2.749 (Simulation time: 02 hr 48 min 20 sec)
Heartbeat CPU 0 instructions: 390000002 cycles: 135743061 heartbeat IPC: 3.126 cumulative IPC: 2.759 (Simulation time: 02 hr 52 min 49 sec)
Heartbeat CPU 0 instructions: 400000000 cycles: 139046113 heartbeat IPC: 3.028 cumulative IPC: 2.766 (Simulation time: 02 hr 57 min 20 sec)
Heartbeat CPU 0 instructions: 410000000 cycles: 144199700 heartbeat IPC: 1.94 cumulative IPC: 2.733 (Simulation time: 03 hr 03 min 08 sec)
Heartbeat CPU 0 instructions: 420000003 cycles: 151243395 heartbeat IPC: 1.42 cumulative IPC: 2.667 (Simulation time: 03 hr 10 min 22 sec)
Heartbeat CPU 0 instructions: 430000000 cycles: 155981825 heartbeat IPC: 2.11 cumulative IPC: 2.648 (Simulation time: 03 hr 16 min 14 sec)
Heartbeat CPU 0 instructions: 440000004 cycles: 160472151 heartbeat IPC: 2.227 cumulative IPC: 2.636 (Simulation time: 03 hr 21 min 49 sec)
Heartbeat CPU 0 instructions: 450000001 cycles: 165028913 heartbeat IPC: 2.195 cumulative IPC: 2.622 (Simulation time: 03 hr 27 min 27 sec)
Heartbeat CPU 0 instructions: 460000002 cycles: 171443097 heartbeat IPC: 1.559 cumulative IPC: 2.58 (Simulation time: 03 hr 34 min 20 sec)
Heartbeat CPU 0 instructions: 470000003 cycles: 177494206 heartbeat IPC: 1.653 cumulative IPC: 2.546 (Simulation time: 03 hr 40 min 55 sec)
Heartbeat CPU 0 instructions: 480000000 cycles: 180893863 heartbeat IPC: 2.941 cumulative IPC: 2.554 (Simulation time: 03 hr 45 min 33 sec)
Heartbeat CPU 0 instructions: 490000001 cycles: 184689668 heartbeat IPC: 2.634 cumulative IPC: 2.555 (Simulation time: 03 hr 50 min 24 sec)
Heartbeat CPU 0 instructions: 500000002 cycles: 188236359 heartbeat IPC: 2.82 cumulative IPC: 2.561 (Simulation time: 03 hr 55 min 02 sec)
Heartbeat CPU 0 instructions: 510000000 cycles: 191772080 heartbeat IPC: 2.828 cumulative IPC: 2.566 (Simulation time: 03 hr 59 min 47 sec)
Heartbeat CPU 0 instructions: 520000000 cycles: 195324134 heartbeat IPC: 2.815 cumulative IPC: 2.571 (Simulation time: 04 hr 04 min 28 sec)
Heartbeat CPU 0 instructions: 530000001 cycles: 202571730 heartbeat IPC: 1.38 cumulative IPC: 2.525 (Simulation time: 04 hr 11 min 47 sec)
Heartbeat CPU 0 instructions: 540000000 cycles: 209164961 heartbeat IPC: 1.517 cumulative IPC: 2.492 (Simulation time: 04 hr 18 min 48 sec)
Heartbeat CPU 0 instructions: 550000004 cycles: 216749462 heartbeat IPC: 1.318 cumulative IPC: 2.448 (Simulation time: 04 hr 26 min 24 sec)
Heartbeat CPU 0 instructions: 560000004 cycles: 220090903 heartbeat IPC: 2.993 cumulative IPC: 2.457 (Simulation time: 04 hr 30 min 51 sec)
Heartbeat CPU 0 instructions: 570000002 cycles: 222917282 heartbeat IPC: 3.538 cumulative IPC: 2.471 (Simulation time: 04 hr 35 min 02 sec)
Heartbeat CPU 0 instructions: 580000000 cycles: 225882978 heartbeat IPC: 3.372 cumulative IPC: 2.484 (Simulation time: 04 hr 39 min 14 sec)
Heartbeat CPU 0 instructions: 590000001 cycles: 228847655 heartbeat IPC: 3.373 cumulative IPC: 2.496 (Simulation time: 04 hr 43 min 27 sec)
Heartbeat CPU 0 instructions: 600000003 cycles: 231573631 heartbeat IPC: 3.668 cumulative IPC: 2.511 (Simulation time: 04 hr 47 min 37 sec)
Heartbeat CPU 0 instructions: 610000001 cycles: 234494320 heartbeat IPC: 3.424 cumulative IPC: 2.523 (Simulation time: 04 hr 52 min 00 sec)
Heartbeat CPU 0 instructions: 620000002 cycles: 237511848 heartbeat IPC: 3.314 cumulative IPC: 2.533 (Simulation time: 04 hr 56 min 24 sec)
Heartbeat CPU 0 instructions: 630000002 cycles: 240381938 heartbeat IPC: 3.484 cumulative IPC: 2.545 (Simulation time: 05 hr 00 min 43 sec)
Heartbeat CPU 0 instructions: 640000004 cycles: 243455979 heartbeat IPC: 3.253 cumulative IPC: 2.555 (Simulation time: 05 hr 05 min 01 sec)
Heartbeat CPU 0 instructions: 650000001 cycles: 246209931 heartbeat IPC: 3.631 cumulative IPC: 2.567 (Simulation time: 05 hr 09 min 18 sec)
Simulation finished CPU 0 instructions: 600000001 cycles: 233709869 cumulative IPC: 2.567 (Simulation time: 05 hr 09 min 18 sec)
Simulation complete CPU 0 instructions: 600000001 cycles: 233709869 cumulative IPC: 2.567 (Simulation time: 05 hr 09 min 18 sec)

ChampSim completed all CPUs

=== Simulation ===
CPU 0 runs traces/400.perlbench-50B.champsimtrace.xz
Region of Interest Statistics

CPU 0 cumulative IPC: 2.567 instructions: 600000001 cycles: 233709869
CPU 0 Branch Prediction Accuracy: 98.73% MPKI: 2.62 Average ROB Occupancy at Mispredict: 85.78
Branch type MPKI
BRANCH_DIRECT_JUMP: 0.0176
BRANCH_INDIRECT: 0.38
BRANCH_CONDITIONAL: 1.77
BRANCH_DIRECT_CALL: 0.0067
BRANCH_INDIRECT_CALL: 0.431
BRANCH_RETURN: 0.0161

LLC TOTAL        ACCESS:    1219721 HIT:     877678 MISS:     342043
LLC LOAD         ACCESS:     585876 HIT:     453893 MISS:     131983
LLC RFO          ACCESS:      48568 HIT:      35215 MISS:      13353
LLC PREFETCH     ACCESS:     433437 HIT:     246571 MISS:     186866
LLC WRITE        ACCESS:     129788 HIT:     129694 MISS:         94
LLC TRANSLATION  ACCESS:      22052 HIT:      12305 MISS:       9747
LLC PREFETCH REQUESTED:     433719 ISSUED:     433437 USEFUL:      68429 USELESS:      63760
LLC AVERAGE MISS LATENCY: 729.2 cycles
cpu0_DTLB TOTAL        ACCESS:  134654309 HIT:  133302199 MISS:    1352110
cpu0_DTLB LOAD         ACCESS:  134654309 HIT:  133302199 MISS:    1352110
cpu0_DTLB RFO          ACCESS:          0 HIT:          0 MISS:          0
cpu0_DTLB PREFETCH     ACCESS:          0 HIT:          0 MISS:          0
cpu0_DTLB WRITE        ACCESS:          0 HIT:          0 MISS:          0
cpu0_DTLB TRANSLATION  ACCESS:          0 HIT:          0 MISS:          0
cpu0_DTLB PREFETCH REQUESTED:          0 ISSUED:          0 USEFUL:          0 USELESS:          0
cpu0_DTLB AVERAGE MISS LATENCY: 10.61 cycles
cpu0_ITLB TOTAL        ACCESS:    8974582 HIT:    8767324 MISS:     207258
cpu0_ITLB LOAD         ACCESS:    8974582 HIT:    8767324 MISS:     207258
cpu0_ITLB RFO          ACCESS:          0 HIT:          0 MISS:          0
cpu0_ITLB PREFETCH     ACCESS:          0 HIT:          0 MISS:          0
cpu0_ITLB WRITE        ACCESS:          0 HIT:          0 MISS:          0
cpu0_ITLB TRANSLATION  ACCESS:          0 HIT:          0 MISS:          0
cpu0_ITLB PREFETCH REQUESTED:          0 ISSUED:          0 USEFUL:          0 USELESS:          0
cpu0_ITLB AVERAGE MISS LATENCY: 2.635 cycles
cpu0_L1D TOTAL        ACCESS:  180717015 HIT:  176957345 MISS:    3759670
cpu0_L1D LOAD         ACCESS:   95158025 HIT:   92071799 MISS:    3086226
cpu0_L1D RFO          ACCESS:          0 HIT:          0 MISS:          0
cpu0_L1D PREFETCH     ACCESS:          0 HIT:          0 MISS:          0
cpu0_L1D WRITE        ACCESS:   85530467 HIT:   84884120 MISS:     646347
cpu0_L1D TRANSLATION  ACCESS:      28523 HIT:       1426 MISS:      27097
cpu0_L1D PREFETCH REQUESTED:          0 ISSUED:          0 USEFUL:          0 USELESS:          0
cpu0_L1D AVERAGE MISS LATENCY: 34.01 cycles
cpu0_L1I TOTAL        ACCESS:   10489691 HIT:    8599765 MISS:    1889926
cpu0_L1I LOAD         ACCESS:   10489691 HIT:    8599765 MISS:    1889926
cpu0_L1I RFO          ACCESS:          0 HIT:          0 MISS:          0
cpu0_L1I PREFETCH     ACCESS:          0 HIT:          0 MISS:          0
cpu0_L1I WRITE        ACCESS:          0 HIT:          0 MISS:          0
cpu0_L1I TRANSLATION  ACCESS:          0 HIT:          0 MISS:          0
cpu0_L1I PREFETCH REQUESTED:          0 ISSUED:          0 USEFUL:          0 USELESS:          0
cpu0_L1I AVERAGE MISS LATENCY: 8.772 cycles
cpu0_L2C TOTAL        ACCESS:    3839837 HIT:    3179970 MISS:     659867
cpu0_L2C LOAD         ACCESS:    3104383 HIT:    2518507 MISS:     585876
cpu0_L2C RFO          ACCESS:     194417 HIT:     145849 MISS:      48568
cpu0_L2C PREFETCH     ACCESS:          0 HIT:          0 MISS:          0
cpu0_L2C WRITE        ACCESS:     514020 HIT:     510649 MISS:       3371
cpu0_L2C TRANSLATION  ACCESS:      27017 HIT:       4965 MISS:      22052
cpu0_L2C PREFETCH REQUESTED:          0 ISSUED:          0 USEFUL:          0 USELESS:          0
cpu0_L2C AVERAGE MISS LATENCY: 183.6 cycles
cpu0_STLB TOTAL        ACCESS:    1009667 HIT:     982977 MISS:      26690
cpu0_STLB LOAD         ACCESS:    1009667 HIT:     982977 MISS:      26690
cpu0_STLB RFO          ACCESS:          0 HIT:          0 MISS:          0
cpu0_STLB PREFETCH     ACCESS:          0 HIT:          0 MISS:          0
cpu0_STLB WRITE        ACCESS:          0 HIT:          0 MISS:          0
cpu0_STLB TRANSLATION  ACCESS:          0 HIT:          0 MISS:          0
cpu0_STLB PREFETCH REQUESTED:          0 ISSUED:          0 USEFUL:          0 USELESS:          0
cpu0_STLB AVERAGE MISS LATENCY: 326.2 cycles

DRAM Statistics

Channel 0 RQ ROW_BUFFER_HIT:     137546
  ROW_BUFFER_MISS:     191453
 AVG DBUS CONGESTED CYCLE: 3.901
WQ ROW_BUFFER_HIT: Channel 0 
  ROW_BUFFER_MISS:       3583
  FULL:      15741
