WARNING: physical memory size is smaller than virtual memory size.

*** ChampSim Multicore Out-of-Order Simulator ***
Warmup Instructions: 50000000
Simulation Instructions: 600000000
Number of CPUs: 1
Page size: 4096

Off-chip DRAM Size: 4 GiB Channels: 1 Width: 64-bit Data Race: 3200 MT/s
Heartbeat CPU 0 instructions: 10000001 cycles: 2500318 heartbeat IPC: 3.999 cumulative IPC: 3.999 (Simulation time: 00 hr 00 min 49 sec)
Heartbeat CPU 0 instructions: 20000002 cycles: 5037128 heartbeat IPC: 3.942 cumulative IPC: 3.971 (Simulation time: 00 hr 01 min 49 sec)
Heartbeat CPU 0 instructions: 30000002 cycles: 7537128 heartbeat IPC: 4 cumulative IPC: 3.98 (Simulation time: 00 hr 02 min 48 sec)
Heartbeat CPU 0 instructions: 40000002 cycles: 10037128 heartbeat IPC: 4 cumulative IPC: 3.985 (Simulation time: 00 hr 03 min 53 sec)
Heartbeat CPU 0 instructions: 50000002 cycles: 12537128 heartbeat IPC: 4 cumulative IPC: 3.988 (Simulation time: 00 hr 05 min 03 sec)
Warmup finished CPU 0 instructions: 50000002 cycles: 12537129 cumulative IPC: 3.988 (Simulation time: 00 hr 05 min 03 sec)
Warmup complete CPU 0 instructions: 50000002 cycles: 12537129 cumulative IPC: 3.988 (Simulation time: 00 hr 05 min 03 sec)
Heartbeat CPU 0 instructions: 60000000 cycles: 17692744 heartbeat IPC: 1.94 cumulative IPC: 1.94 (Simulation time: 00 hr 06 min 56 sec)
Heartbeat CPU 0 instructions: 70000002 cycles: 22578853 heartbeat IPC: 2.047 cumulative IPC: 1.992 (Simulation time: 00 hr 08 min 45 sec)
Heartbeat CPU 0 instructions: 80000001 cycles: 27934579 heartbeat IPC: 1.867 cumulative IPC: 1.948 (Simulation time: 00 hr 10 min 38 sec)
Heartbeat CPU 0 instructions: 90000001 cycles: 32807838 heartbeat IPC: 2.052 cumulative IPC: 1.973 (Simulation time: 00 hr 12 min 27 sec)
Heartbeat CPU 0 instructions: 100000000 cycles: 37910741 heartbeat IPC: 1.96 cumulative IPC: 1.971 (Simulation time: 00 hr 14 min 17 sec)
Heartbeat CPU 0 instructions: 110000000 cycles: 42793252 heartbeat IPC: 2.048 cumulative IPC: 1.983 (Simulation time: 00 hr 16 min 00 sec)
Heartbeat CPU 0 instructions: 120000001 cycles: 47981682 heartbeat IPC: 1.927 cumulative IPC: 1.975 (Simulation time: 00 hr 17 min 50 sec)
Heartbeat CPU 0 instructions: 130000001 cycles: 53128351 heartbeat IPC: 1.943 cumulative IPC: 1.971 (Simulation time: 00 hr 19 min 39 sec)
Heartbeat CPU 0 instructions: 140000001 cycles: 58425096 heartbeat IPC: 1.888 cumulative IPC: 1.961 (Simulation time: 00 hr 21 min 19 sec)
Heartbeat CPU 0 instructions: 150000001 cycles: 63725184 heartbeat IPC: 1.887 cumulative IPC: 1.954 (Simulation time: 00 hr 22 min 58 sec)
Heartbeat CPU 0 instructions: 160000004 cycles: 68910436 heartbeat IPC: 1.929 cumulative IPC: 1.951 (Simulation time: 00 hr 24 min 52 sec)
Heartbeat CPU 0 instructions: 170000000 cycles: 76592958 heartbeat IPC: 1.302 cumulative IPC: 1.873 (Simulation time: 00 hr 27 min 27 sec)
Heartbeat CPU 0 instructions: 180000004 cycles: 83020907 heartbeat IPC: 1.556 cumulative IPC: 1.844 (Simulation time: 00 hr 29 min 10 sec)
Heartbeat CPU 0 instructions: 190000001 cycles: 89015948 heartbeat IPC: 1.668 cumulative IPC: 1.831 (Simulation time: 00 hr 30 min 04 sec)
Heartbeat CPU 0 instructions: 200000003 cycles: 93481503 heartbeat IPC: 2.239 cumulative IPC: 1.853 (Simulation time: 00 hr 30 min 49 sec)
Heartbeat CPU 0 instructions: 210000001 cycles: 98161755 heartbeat IPC: 2.137 cumulative IPC: 1.869 (Simulation time: 00 hr 31 min 34 sec)
Heartbeat CPU 0 instructions: 220000000 cycles: 102844721 heartbeat IPC: 2.135 cumulative IPC: 1.882 (Simulation time: 00 hr 32 min 20 sec)
Heartbeat CPU 0 instructions: 230000002 cycles: 107685149 heartbeat IPC: 2.066 cumulative IPC: 1.892 (Simulation time: 00 hr 33 min 05 sec)
Heartbeat CPU 0 instructions: 240000000 cycles: 112237393 heartbeat IPC: 2.197 cumulative IPC: 1.906 (Simulation time: 00 hr 33 min 50 sec)
Heartbeat CPU 0 instructions: 250000000 cycles: 117040191 heartbeat IPC: 2.082 cumulative IPC: 1.914 (Simulation time: 00 hr 34 min 36 sec)
Heartbeat CPU 0 instructions: 260000000 cycles: 121716525 heartbeat IPC: 2.138 cumulative IPC: 1.923 (Simulation time: 00 hr 35 min 22 sec)
Heartbeat CPU 0 instructions: 270000002 cycles: 126365118 heartbeat IPC: 2.151 cumulative IPC: 1.933 (Simulation time: 00 hr 36 min 09 sec)
Heartbeat CPU 0 instructions: 280000002 cycles: 131002188 heartbeat IPC: 2.157 cumulative IPC: 1.942 (Simulation time: 00 hr 36 min 56 sec)
Heartbeat CPU 0 instructions: 290000001 cycles: 136154669 heartbeat IPC: 1.941 cumulative IPC: 1.941 (Simulation time: 00 hr 37 min 44 sec)
Heartbeat CPU 0 instructions: 300000003 cycles: 140872758 heartbeat IPC: 2.12 cumulative IPC: 1.948 (Simulation time: 00 hr 38 min 30 sec)
Heartbeat CPU 0 instructions: 310000001 cycles: 145793664 heartbeat IPC: 2.032 cumulative IPC: 1.951 (Simulation time: 00 hr 39 min 16 sec)
Heartbeat CPU 0 instructions: 320000003 cycles: 150710604 heartbeat IPC: 2.034 cumulative IPC: 1.954 (Simulation time: 00 hr 40 min 02 sec)
Heartbeat CPU 0 instructions: 330000003 cycles: 155604306 heartbeat IPC: 2.043 cumulative IPC: 1.957 (Simulation time: 00 hr 40 min 48 sec)
Heartbeat CPU 0 instructions: 340000000 cycles: 161923135 heartbeat IPC: 1.583 cumulative IPC: 1.941 (Simulation time: 00 hr 41 min 45 sec)
Heartbeat CPU 0 instructions: 350000000 cycles: 168689978 heartbeat IPC: 1.478 cumulative IPC: 1.921 (Simulation time: 00 hr 42 min 44 sec)
Heartbeat CPU 0 instructions: 360000004 cycles: 174992271 heartbeat IPC: 1.587 cumulative IPC: 1.908 (Simulation time: 00 hr 43 min 40 sec)
Heartbeat CPU 0 instructions: 370000000 cycles: 179179395 heartbeat IPC: 2.388 cumulative IPC: 1.92 (Simulation time: 00 hr 44 min 26 sec)
Heartbeat CPU 0 instructions: 380000001 cycles: 183885868 heartbeat IPC: 2.125 cumulative IPC: 1.926 (Simulation time: 00 hr 45 min 15 sec)
Heartbeat CPU 0 instructions: 390000002 cycles: 188555181 heartbeat IPC: 2.142 cumulative IPC: 1.932 (Simulation time: 00 hr 46 min 04 sec)
Heartbeat CPU 0 instructions: 400000004 cycles: 193385511 heartbeat IPC: 2.07 cumulative IPC: 1.935 (Simulation time: 00 hr 46 min 54 sec)
Heartbeat CPU 0 instructions: 410000000 cycles: 197865331 heartbeat IPC: 2.232 cumulative IPC: 1.942 (Simulation time: 00 hr 47 min 43 sec)
Heartbeat CPU 0 instructions: 420000000 cycles: 202630060 heartbeat IPC: 2.099 cumulative IPC: 1.946 (Simulation time: 00 hr 48 min 35 sec)
Heartbeat CPU 0 instructions: 430000001 cycles: 206903809 heartbeat IPC: 2.34 cumulative IPC: 1.955 (Simulation time: 00 hr 49 min 23 sec)
Heartbeat CPU 0 instructions: 440000000 cycles: 211964010 heartbeat IPC: 1.976 cumulative IPC: 1.956 (Simulation time: 00 hr 50 min 13 sec)
Heartbeat CPU 0 instructions: 450000002 cycles: 216376952 heartbeat IPC: 2.266 cumulative IPC: 1.962 (Simulation time: 00 hr 51 min 01 sec)
Heartbeat CPU 0 instructions: 460000000 cycles: 220946552 heartbeat IPC: 2.188 cumulative IPC: 1.967 (Simulation time: 00 hr 51 min 50 sec)
Heartbeat CPU 0 instructions: 470000000 cycles: 225727032 heartbeat IPC: 2.092 cumulative IPC: 1.97 (Simulation time: 00 hr 52 min 39 sec)
Heartbeat CPU 0 instructions: 480000003 cycles: 230274321 heartbeat IPC: 2.199 cumulative IPC: 1.975 (Simulation time: 00 hr 53 min 26 sec)
Heartbeat CPU 0 instructions: 490000000 cycles: 234727378 heartbeat IPC: 2.246 cumulative IPC: 1.98 (Simulation time: 00 hr 54 min 12 sec)
Heartbeat CPU 0 instructions: 500000000 cycles: 239601628 heartbeat IPC: 2.052 cumulative IPC: 1.982 (Simulation time: 00 hr 55 min 01 sec)
Heartbeat CPU 0 instructions: 510000003 cycles: 244978629 heartbeat IPC: 1.86 cumulative IPC: 1.979 (Simulation time: 00 hr 55 min 53 sec)
Heartbeat CPU 0 instructions: 520000001 cycles: 249396210 heartbeat IPC: 2.264 cumulative IPC: 1.984 (Simulation time: 00 hr 56 min 41 sec)
Heartbeat CPU 0 instructions: 530000002 cycles: 254322168 heartbeat IPC: 2.03 cumulative IPC: 1.985 (Simulation time: 00 hr 57 min 30 sec)
Heartbeat CPU 0 instructions: 540000000 cycles: 259217240 heartbeat IPC: 2.043 cumulative IPC: 1.986 (Simulation time: 00 hr 58 min 19 sec)
Heartbeat CPU 0 instructions: 550000001 cycles: 263840981 heartbeat IPC: 2.163 cumulative IPC: 1.99 (Simulation time: 00 hr 59 min 06 sec)
Heartbeat CPU 0 instructions: 560000000 cycles: 268735039 heartbeat IPC: 2.043 cumulative IPC: 1.991 (Simulation time: 00 hr 59 min 53 sec)
Heartbeat CPU 0 instructions: 570000004 cycles: 274049706 heartbeat IPC: 1.882 cumulative IPC: 1.988 (Simulation time: 01 hr 00 min 45 sec)
Heartbeat CPU 0 instructions: 580000003 cycles: 280714489 heartbeat IPC: 1.5 cumulative IPC: 1.976 (Simulation time: 01 hr 01 min 44 sec)
Heartbeat CPU 0 instructions: 590000002 cycles: 287499147 heartbeat IPC: 1.474 cumulative IPC: 1.964 (Simulation time: 01 hr 02 min 46 sec)
Heartbeat CPU 0 instructions: 600000000 cycles: 291818826 heartbeat IPC: 2.315 cumulative IPC: 1.969 (Simulation time: 01 hr 03 min 31 sec)
Heartbeat CPU 0 instructions: 610000002 cycles: 296109621 heartbeat IPC: 2.331 cumulative IPC: 1.975 (Simulation time: 01 hr 04 min 19 sec)
Heartbeat CPU 0 instructions: 620000000 cycles: 300801742 heartbeat IPC: 2.131 cumulative IPC: 1.977 (Simulation time: 01 hr 05 min 09 sec)
Heartbeat CPU 0 instructions: 630000002 cycles: 305705157 heartbeat IPC: 2.039 cumulative IPC: 1.978 (Simulation time: 01 hr 05 min 58 sec)
Heartbeat CPU 0 instructions: 640000001 cycles: 310479106 heartbeat IPC: 2.095 cumulative IPC: 1.98 (Simulation time: 01 hr 06 min 48 sec)
Heartbeat CPU 0 instructions: 650000000 cycles: 314961814 heartbeat IPC: 2.231 cumulative IPC: 1.984 (Simulation time: 01 hr 07 min 39 sec)
Simulation finished CPU 0 instructions: 600000001 cycles: 302424687 cumulative IPC: 1.984 (Simulation time: 01 hr 07 min 39 sec)
Simulation complete CPU 0 instructions: 600000001 cycles: 302424687 cumulative IPC: 1.984 (Simulation time: 01 hr 07 min 39 sec)

ChampSim completed all CPUs

=== Simulation ===
CPU 0 runs traces/400.perlbench-41B.champsimtrace.xz
Region of Interest Statistics

CPU 0 cumulative IPC: 1.984 instructions: 600000001 cycles: 302424687
CPU 0 Branch Prediction Accuracy: 93.95% MPKI: 12.5 Average ROB Occupancy at Mispredict: 29.26
Branch type MPKI
BRANCH_DIRECT_JUMP: 0.0123
BRANCH_INDIRECT: 0.323
BRANCH_CONDITIONAL: 12
BRANCH_DIRECT_CALL: 0.0043
BRANCH_INDIRECT_CALL: 0.2
BRANCH_RETURN: 0.00828

LLC TOTAL        ACCESS:     541350 HIT:     497087 MISS:      44263
LLC LOAD         ACCESS:     403738 HIT:     370407 MISS:      33331
LLC RFO          ACCESS:      32591 HIT:      28346 MISS:       4245
LLC PREFETCH     ACCESS:          0 HIT:          0 MISS:          0
LLC WRITE        ACCESS:      85819 HIT:      85689 MISS:        130
LLC TRANSLATION  ACCESS:      19202 HIT:      12645 MISS:       6557
LLC PREFETCH REQUESTED:          0 ISSUED:          0 USEFUL:          0 USELESS:          0
LLC AVERAGE MISS LATENCY: 481.6 cycles
cpu0_DTLB TOTAL        ACCESS:  153697116 HIT:  153020634 MISS:     676482
cpu0_DTLB LOAD         ACCESS:  153697116 HIT:  153020634 MISS:     676482
cpu0_DTLB RFO          ACCESS:          0 HIT:          0 MISS:          0
cpu0_DTLB PREFETCH     ACCESS:          0 HIT:          0 MISS:          0
cpu0_DTLB WRITE        ACCESS:          0 HIT:          0 MISS:          0
cpu0_DTLB TRANSLATION  ACCESS:          0 HIT:          0 MISS:          0
cpu0_DTLB PREFETCH REQUESTED:          0 ISSUED:          0 USEFUL:          0 USELESS:          0
cpu0_DTLB AVERAGE MISS LATENCY: 10.58 cycles
cpu0_ITLB TOTAL        ACCESS:    4838911 HIT:    4781052 MISS:      57859
cpu0_ITLB LOAD         ACCESS:    4838911 HIT:    4781052 MISS:      57859
cpu0_ITLB RFO          ACCESS:          0 HIT:          0 MISS:          0
cpu0_ITLB PREFETCH     ACCESS:          0 HIT:          0 MISS:          0
cpu0_ITLB WRITE        ACCESS:          0 HIT:          0 MISS:          0
cpu0_ITLB TRANSLATION  ACCESS:          0 HIT:          0 MISS:          0
cpu0_ITLB PREFETCH REQUESTED:          0 ISSUED:          0 USEFUL:          0 USELESS:          0
cpu0_ITLB AVERAGE MISS LATENCY: 4.301 cycles
cpu0_L1D TOTAL        ACCESS:  200328953 HIT:  198648728 MISS:    1680225
cpu0_L1D LOAD         ACCESS:  117086007 HIT:  115773215 MISS:    1312792
cpu0_L1D RFO          ACCESS:          0 HIT:          0 MISS:          0
cpu0_L1D PREFETCH     ACCESS:          0 HIT:          0 MISS:          0
cpu0_L1D WRITE        ACCESS:   83218478 HIT:   82874470 MISS:     344008
cpu0_L1D TRANSLATION  ACCESS:      24468 HIT:       1043 MISS:      23425
cpu0_L1D PREFETCH REQUESTED:          0 ISSUED:          0 USEFUL:          0 USELESS:          0
cpu0_L1D AVERAGE MISS LATENCY: 21.17 cycles
cpu0_L1I TOTAL        ACCESS:    5581170 HIT:    4819628 MISS:     761542
cpu0_L1I LOAD         ACCESS:    5581170 HIT:    4819628 MISS:     761542
cpu0_L1I RFO          ACCESS:          0 HIT:          0 MISS:          0
cpu0_L1I PREFETCH     ACCESS:          0 HIT:          0 MISS:          0
cpu0_L1I WRITE        ACCESS:          0 HIT:          0 MISS:          0
cpu0_L1I TRANSLATION  ACCESS:          0 HIT:          0 MISS:          0
cpu0_L1I PREFETCH REQUESTED:          0 ISSUED:          0 USEFUL:          0 USELESS:          0
cpu0_L1I AVERAGE MISS LATENCY: 8.693 cycles
cpu0_L2C TOTAL        ACCESS:    1668183 HIT:    1210843 MISS:     457340
cpu0_L2C LOAD         ACCESS:    1317217 HIT:     913479 MISS:     403738
cpu0_L2C RFO          ACCESS:      88570 HIT:      55979 MISS:      32591
cpu0_L2C PREFETCH     ACCESS:          0 HIT:          0 MISS:          0
cpu0_L2C WRITE        ACCESS:     239053 HIT:     237244 MISS:       1809
cpu0_L2C TRANSLATION  ACCESS:      23343 HIT:       4141 MISS:      19202
cpu0_L2C PREFETCH REQUESTED:          0 ISSUED:          0 USEFUL:          0 USELESS:          0
cpu0_L2C AVERAGE MISS LATENCY: 66.63 cycles
cpu0_STLB TOTAL        ACCESS:     505101 HIT:     482312 MISS:      22789
cpu0_STLB LOAD         ACCESS:     505101 HIT:     482312 MISS:      22789
cpu0_STLB RFO          ACCESS:          0 HIT:          0 MISS:          0
cpu0_STLB PREFETCH     ACCESS:          0 HIT:          0 MISS:          0
cpu0_STLB WRITE        ACCESS:          0 HIT:          0 MISS:          0
cpu0_STLB TRANSLATION  ACCESS:          0 HIT:          0 MISS:          0
cpu0_STLB PREFETCH REQUESTED:          0 ISSUED:          0 USEFUL:          0 USELESS:          0
cpu0_STLB AVERAGE MISS LATENCY: 179.4 cycles

DRAM Statistics

Channel 0 RQ ROW_BUFFER_HIT:      12100
  ROW_BUFFER_MISS:      32033
 AVG DBUS CONGESTED CYCLE: 3.7
WQ ROW_BUFFER_HIT: Channel 0 
  ROW_BUFFER_MISS:        487
  FULL:       1200
