WARNING: physical memory size is smaller than virtual memory size.

*** ChampSim Multicore Out-of-Order Simulator ***
Warmup Instructions: 50000000
Simulation Instructions: 600000000
Number of CPUs: 1
Page size: 4096

Initialize SIGNATURE TABLE
ST_SET: 1
ST_WAY: 256
ST_TAG_BIT: 16
ST_TAG_MASK: ffff

Initialize PATTERN TABLE
PT_SET: 512
PT_WAY: 4
SIG_DELTA_BIT: 7
C_SIG_BIT: 4
C_DELTA_BIT: 4

Initialize PREFETCH FILTER
FILTER_SET: 1024
Off-chip DRAM Size: 4 GiB Channels: 1 Width: 64-bit Data Race: 3200 MT/s
Heartbeat CPU 0 instructions: 10000001 cycles: 2500318 heartbeat IPC: 3.999 cumulative IPC: 3.999 (Simulation time: 00 hr 02 min 41 sec)
Heartbeat CPU 0 instructions: 20000002 cycles: 5037128 heartbeat IPC: 3.942 cumulative IPC: 3.971 (Simulation time: 00 hr 06 min 10 sec)
Heartbeat CPU 0 instructions: 30000002 cycles: 7537128 heartbeat IPC: 4 cumulative IPC: 3.98 (Simulation time: 00 hr 09 min 26 sec)
Heartbeat CPU 0 instructions: 40000002 cycles: 10037128 heartbeat IPC: 4 cumulative IPC: 3.985 (Simulation time: 00 hr 12 min 45 sec)
Heartbeat CPU 0 instructions: 50000002 cycles: 12537128 heartbeat IPC: 4 cumulative IPC: 3.988 (Simulation time: 00 hr 16 min 03 sec)
Warmup finished CPU 0 instructions: 50000002 cycles: 12537129 cumulative IPC: 3.988 (Simulation time: 00 hr 16 min 03 sec)
Warmup complete CPU 0 instructions: 50000002 cycles: 12537129 cumulative IPC: 3.988 (Simulation time: 00 hr 16 min 03 sec)
Heartbeat CPU 0 instructions: 60000000 cycles: 17714758 heartbeat IPC: 1.931 cumulative IPC: 1.931 (Simulation time: 00 hr 21 min 09 sec)
Heartbeat CPU 0 instructions: 70000002 cycles: 22619294 heartbeat IPC: 2.039 cumulative IPC: 1.984 (Simulation time: 00 hr 26 min 12 sec)
Heartbeat CPU 0 instructions: 80000001 cycles: 27983378 heartbeat IPC: 1.864 cumulative IPC: 1.942 (Simulation time: 00 hr 31 min 28 sec)
Heartbeat CPU 0 instructions: 90000001 cycles: 32856768 heartbeat IPC: 2.052 cumulative IPC: 1.969 (Simulation time: 00 hr 36 min 30 sec)
Heartbeat CPU 0 instructions: 100000000 cycles: 37970860 heartbeat IPC: 1.955 cumulative IPC: 1.966 (Simulation time: 00 hr 41 min 39 sec)
Heartbeat CPU 0 instructions: 110000000 cycles: 42848977 heartbeat IPC: 2.05 cumulative IPC: 1.979 (Simulation time: 00 hr 46 min 40 sec)
Heartbeat CPU 0 instructions: 120000001 cycles: 48042622 heartbeat IPC: 1.925 cumulative IPC: 1.972 (Simulation time: 00 hr 51 min 52 sec)
Heartbeat CPU 0 instructions: 130000001 cycles: 53199436 heartbeat IPC: 1.939 cumulative IPC: 1.967 (Simulation time: 00 hr 57 min 04 sec)
Heartbeat CPU 0 instructions: 140000001 cycles: 58499853 heartbeat IPC: 1.887 cumulative IPC: 1.958 (Simulation time: 01 hr 02 min 21 sec)
Heartbeat CPU 0 instructions: 150000001 cycles: 63801202 heartbeat IPC: 1.886 cumulative IPC: 1.951 (Simulation time: 01 hr 07 min 34 sec)
Heartbeat CPU 0 instructions: 160000004 cycles: 69005653 heartbeat IPC: 1.921 cumulative IPC: 1.948 (Simulation time: 01 hr 12 min 46 sec)
Heartbeat CPU 0 instructions: 170000000 cycles: 76861973 heartbeat IPC: 1.273 cumulative IPC: 1.866 (Simulation time: 01 hr 19 min 46 sec)
Heartbeat CPU 0 instructions: 180000004 cycles: 83604425 heartbeat IPC: 1.483 cumulative IPC: 1.829 (Simulation time: 01 hr 26 min 17 sec)
Heartbeat CPU 0 instructions: 190000001 cycles: 89909671 heartbeat IPC: 1.586 cumulative IPC: 1.809 (Simulation time: 01 hr 32 min 28 sec)
Heartbeat CPU 0 instructions: 200000003 cycles: 94391209 heartbeat IPC: 2.231 cumulative IPC: 1.833 (Simulation time: 01 hr 37 min 14 sec)
Heartbeat CPU 0 instructions: 210000001 cycles: 99092817 heartbeat IPC: 2.127 cumulative IPC: 1.849 (Simulation time: 01 hr 42 min 12 sec)
Heartbeat CPU 0 instructions: 220000000 cycles: 103788963 heartbeat IPC: 2.129 cumulative IPC: 1.863 (Simulation time: 01 hr 47 min 07 sec)
Heartbeat CPU 0 instructions: 230000002 cycles: 108670598 heartbeat IPC: 2.048 cumulative IPC: 1.872 (Simulation time: 01 hr 52 min 03 sec)
Heartbeat CPU 0 instructions: 240000000 cycles: 113245339 heartbeat IPC: 2.186 cumulative IPC: 1.887 (Simulation time: 01 hr 56 min 54 sec)
Heartbeat CPU 0 instructions: 250000000 cycles: 118078656 heartbeat IPC: 2.069 cumulative IPC: 1.895 (Simulation time: 02 hr 01 min 54 sec)
Heartbeat CPU 0 instructions: 260000000 cycles: 122775406 heartbeat IPC: 2.129 cumulative IPC: 1.905 (Simulation time: 02 hr 06 min 50 sec)
Heartbeat CPU 0 instructions: 270000002 cycles: 127437261 heartbeat IPC: 2.145 cumulative IPC: 1.915 (Simulation time: 02 hr 11 min 43 sec)
Heartbeat CPU 0 instructions: 280000002 cycles: 132099493 heartbeat IPC: 2.145 cumulative IPC: 1.924 (Simulation time: 02 hr 16 min 36 sec)
Heartbeat CPU 0 instructions: 290000001 cycles: 137265085 heartbeat IPC: 1.936 cumulative IPC: 1.924 (Simulation time: 02 hr 21 min 47 sec)
Heartbeat CPU 0 instructions: 300000003 cycles: 142010424 heartbeat IPC: 2.107 cumulative IPC: 1.931 (Simulation time: 02 hr 26 min 46 sec)
Heartbeat CPU 0 instructions: 310000001 cycles: 146946935 heartbeat IPC: 2.026 cumulative IPC: 1.934 (Simulation time: 02 hr 31 min 48 sec)
Heartbeat CPU 0 instructions: 320000003 cycles: 151885134 heartbeat IPC: 2.025 cumulative IPC: 1.938 (Simulation time: 02 hr 36 min 51 sec)
Heartbeat CPU 0 instructions: 330000003 cycles: 156789471 heartbeat IPC: 2.039 cumulative IPC: 1.941 (Simulation time: 02 hr 41 min 52 sec)
Heartbeat CPU 0 instructions: 340000000 cycles: 163250952 heartbeat IPC: 1.548 cumulative IPC: 1.924 (Simulation time: 02 hr 48 min 04 sec)
Heartbeat CPU 0 instructions: 350000000 cycles: 170182541 heartbeat IPC: 1.443 cumulative IPC: 1.903 (Simulation time: 02 hr 54 min 40 sec)
Heartbeat CPU 0 instructions: 360000004 cycles: 176775732 heartbeat IPC: 1.517 cumulative IPC: 1.887 (Simulation time: 03 hr 01 min 03 sec)
Heartbeat CPU 0 instructions: 370000000 cycles: 180984844 heartbeat IPC: 2.376 cumulative IPC: 1.9 (Simulation time: 03 hr 05 min 42 sec)
Heartbeat CPU 0 instructions: 380000001 cycles: 185708209 heartbeat IPC: 2.117 cumulative IPC: 1.906 (Simulation time: 03 hr 10 min 42 sec)
Heartbeat CPU 0 instructions: 390000002 cycles: 190391797 heartbeat IPC: 2.135 cumulative IPC: 1.912 (Simulation time: 03 hr 15 min 38 sec)
Heartbeat CPU 0 instructions: 400000004 cycles: 195243460 heartbeat IPC: 2.061 cumulative IPC: 1.916 (Simulation time: 03 hr 20 min 36 sec)
Heartbeat CPU 0 instructions: 410000000 cycles: 199743257 heartbeat IPC: 2.222 cumulative IPC: 1.923 (Simulation time: 03 hr 25 min 23 sec)
Heartbeat CPU 0 instructions: 420000000 cycles: 204538173 heartbeat IPC: 2.086 cumulative IPC: 1.927 (Simulation time: 03 hr 30 min 20 sec)
Heartbeat CPU 0 instructions: 430000001 cycles: 208831447 heartbeat IPC: 2.329 cumulative IPC: 1.936 (Simulation time: 03 hr 35 min 06 sec)
Heartbeat CPU 0 instructions: 440000000 cycles: 213921455 heartbeat IPC: 1.965 cumulative IPC: 1.937 (Simulation time: 03 hr 40 min 16 sec)
Heartbeat CPU 0 instructions: 450000002 cycles: 218353167 heartbeat IPC: 2.256 cumulative IPC: 1.943 (Simulation time: 03 hr 45 min 06 sec)
Heartbeat CPU 0 instructions: 460000000 cycles: 222938340 heartbeat IPC: 2.181 cumulative IPC: 1.949 (Simulation time: 03 hr 49 min 54 sec)
Heartbeat CPU 0 instructions: 470000000 cycles: 227734222 heartbeat IPC: 2.085 cumulative IPC: 1.952 (Simulation time: 03 hr 54 min 54 sec)
Heartbeat CPU 0 instructions: 480000003 cycles: 232309533 heartbeat IPC: 2.186 cumulative IPC: 1.957 (Simulation time: 03 hr 59 min 50 sec)
Heartbeat CPU 0 instructions: 490000000 cycles: 236777721 heartbeat IPC: 2.238 cumulative IPC: 1.962 (Simulation time: 04 hr 04 min 39 sec)
Heartbeat CPU 0 instructions: 500000000 cycles: 241661521 heartbeat IPC: 2.048 cumulative IPC: 1.964 (Simulation time: 04 hr 09 min 42 sec)
Heartbeat CPU 0 instructions: 510000003 cycles: 247061082 heartbeat IPC: 1.852 cumulative IPC: 1.961 (Simulation time: 04 hr 15 min 04 sec)
Heartbeat CPU 0 instructions: 520000001 cycles: 251502630 heartbeat IPC: 2.251 cumulative IPC: 1.967 (Simulation time: 04 hr 19 min 53 sec)
Heartbeat CPU 0 instructions: 530000002 cycles: 256436449 heartbeat IPC: 2.027 cumulative IPC: 1.968 (Simulation time: 04 hr 24 min 58 sec)
Heartbeat CPU 0 instructions: 540000000 cycles: 261344230 heartbeat IPC: 2.038 cumulative IPC: 1.969 (Simulation time: 04 hr 29 min 59 sec)
Heartbeat CPU 0 instructions: 550000001 cycles: 265982582 heartbeat IPC: 2.156 cumulative IPC: 1.973 (Simulation time: 04 hr 34 min 55 sec)
Heartbeat CPU 0 instructions: 560000000 cycles: 270890791 heartbeat IPC: 2.037 cumulative IPC: 1.974 (Simulation time: 04 hr 39 min 55 sec)
Heartbeat CPU 0 instructions: 570000004 cycles: 276281034 heartbeat IPC: 1.855 cumulative IPC: 1.972 (Simulation time: 04 hr 45 min 21 sec)
Heartbeat CPU 0 instructions: 580000003 cycles: 283357756 heartbeat IPC: 1.413 cumulative IPC: 1.957 (Simulation time: 04 hr 52 min 11 sec)
Heartbeat CPU 0 instructions: 590000002 cycles: 290765024 heartbeat IPC: 1.35 cumulative IPC: 1.941 (Simulation time: 04 hr 59 min 18 sec)
Heartbeat CPU 0 instructions: 600000000 cycles: 295107355 heartbeat IPC: 2.303 cumulative IPC: 1.946 (Simulation time: 05 hr 04 min 01 sec)
Heartbeat CPU 0 instructions: 610000002 cycles: 299415703 heartbeat IPC: 2.321 cumulative IPC: 1.952 (Simulation time: 05 hr 08 min 50 sec)
Heartbeat CPU 0 instructions: 620000000 cycles: 304117482 heartbeat IPC: 2.127 cumulative IPC: 1.955 (Simulation time: 05 hr 13 min 59 sec)
Heartbeat CPU 0 instructions: 630000002 cycles: 309040976 heartbeat IPC: 2.031 cumulative IPC: 1.956 (Simulation time: 05 hr 18 min 59 sec)
Heartbeat CPU 0 instructions: 640000001 cycles: 313824475 heartbeat IPC: 2.091 cumulative IPC: 1.958 (Simulation time: 05 hr 23 min 58 sec)
Heartbeat CPU 0 instructions: 650000000 cycles: 318317076 heartbeat IPC: 2.226 cumulative IPC: 1.962 (Simulation time: 05 hr 28 min 58 sec)
Simulation finished CPU 0 instructions: 600000001 cycles: 305779949 cumulative IPC: 1.962 (Simulation time: 05 hr 28 min 58 sec)
Simulation complete CPU 0 instructions: 600000001 cycles: 305779949 cumulative IPC: 1.962 (Simulation time: 05 hr 28 min 58 sec)

ChampSim completed all CPUs

=== Simulation ===
CPU 0 runs traces/400.perlbench-41B.champsimtrace.xz
Region of Interest Statistics

CPU 0 cumulative IPC: 1.962 instructions: 600000001 cycles: 305779949
CPU 0 Branch Prediction Accuracy: 93.95% MPKI: 12.5 Average ROB Occupancy at Mispredict: 29.28
Branch type MPKI
BRANCH_DIRECT_JUMP: 0.0123
BRANCH_INDIRECT: 0.323
BRANCH_CONDITIONAL: 12
BRANCH_DIRECT_CALL: 0.0043
BRANCH_INDIRECT_CALL: 0.2
BRANCH_RETURN: 0.00828

LLC TOTAL        ACCESS:     923477 HIT:     780564 MISS:     142913
LLC LOAD         ACCESS:     403257 HIT:     364093 MISS:      39164
LLC RFO          ACCESS:      32596 HIT:      28271 MISS:       4325
LLC PREFETCH     ACCESS:     382907 HIT:     290108 MISS:      92799
LLC WRITE        ACCESS:      85742 HIT:      85720 MISS:         22
LLC TRANSLATION  ACCESS:      18975 HIT:      12372 MISS:       6603
LLC PREFETCH REQUESTED:     382907 ISSUED:     382907 USEFUL:        665 USELESS:         13
LLC AVERAGE MISS LATENCY: 189.4 cycles
cpu0_DTLB TOTAL        ACCESS:  153695132 HIT:  153018442 MISS:     676690
cpu0_DTLB LOAD         ACCESS:  153695132 HIT:  153018442 MISS:     676690
cpu0_DTLB RFO          ACCESS:          0 HIT:          0 MISS:          0
cpu0_DTLB PREFETCH     ACCESS:          0 HIT:          0 MISS:          0
cpu0_DTLB WRITE        ACCESS:          0 HIT:          0 MISS:          0
cpu0_DTLB TRANSLATION  ACCESS:          0 HIT:          0 MISS:          0
cpu0_DTLB PREFETCH REQUESTED:          0 ISSUED:          0 USEFUL:          0 USELESS:          0
cpu0_DTLB AVERAGE MISS LATENCY: 11.9 cycles
cpu0_ITLB TOTAL        ACCESS:    4838931 HIT:    4781084 MISS:      57847
cpu0_ITLB LOAD         ACCESS:    4838931 HIT:    4781084 MISS:      57847
cpu0_ITLB RFO          ACCESS:          0 HIT:          0 MISS:          0
cpu0_ITLB PREFETCH     ACCESS:          0 HIT:          0 MISS:          0
cpu0_ITLB WRITE        ACCESS:          0 HIT:          0 MISS:          0
cpu0_ITLB TRANSLATION  ACCESS:          0 HIT:          0 MISS:          0
cpu0_ITLB PREFETCH REQUESTED:          0 ISSUED:          0 USEFUL:          0 USELESS:          0
cpu0_ITLB AVERAGE MISS LATENCY: 4.967 cycles
cpu0_L1D TOTAL        ACCESS:  200326212 HIT:  198644239 MISS:    1681973
cpu0_L1D LOAD         ACCESS:  117083450 HIT:  115769322 MISS:    1314128
cpu0_L1D RFO          ACCESS:          0 HIT:          0 MISS:          0
cpu0_L1D PREFETCH     ACCESS:          0 HIT:          0 MISS:          0
cpu0_L1D WRITE        ACCESS:   83218298 HIT:   82873871 MISS:     344427
cpu0_L1D TRANSLATION  ACCESS:      24464 HIT:       1046 MISS:      23418
cpu0_L1D PREFETCH REQUESTED:          0 ISSUED:          0 USEFUL:          0 USELESS:          0
cpu0_L1D AVERAGE MISS LATENCY: 24.19 cycles
cpu0_L1I TOTAL        ACCESS:    5581209 HIT:    4819710 MISS:     761499
cpu0_L1I LOAD         ACCESS:    5581209 HIT:    4819710 MISS:     761499
cpu0_L1I RFO          ACCESS:          0 HIT:          0 MISS:          0
cpu0_L1I PREFETCH     ACCESS:          0 HIT:          0 MISS:          0
cpu0_L1I WRITE        ACCESS:          0 HIT:          0 MISS:          0
cpu0_L1I TRANSLATION  ACCESS:          0 HIT:          0 MISS:          0
cpu0_L1I PREFETCH REQUESTED:          0 ISSUED:          0 USEFUL:          0 USELESS:          0
cpu0_L1I AVERAGE MISS LATENCY: 8.835 cycles
cpu0_L2C TOTAL        ACCESS:    1668122 HIT:    1211495 MISS:     456627
cpu0_L2C LOAD         ACCESS:    1317195 HIT:     913938 MISS:     403257
cpu0_L2C RFO          ACCESS:      88570 HIT:      55974 MISS:      32596
cpu0_L2C PREFETCH     ACCESS:          0 HIT:          0 MISS:          0
cpu0_L2C WRITE        ACCESS:     239018 HIT:     237219 MISS:       1799
cpu0_L2C TRANSLATION  ACCESS:      23339 HIT:       4364 MISS:      18975
cpu0_L2C PREFETCH REQUESTED:          0 ISSUED:          0 USEFUL:          0 USELESS:          0
cpu0_L2C AVERAGE MISS LATENCY: 78.29 cycles
cpu0_STLB TOTAL        ACCESS:     505165 HIT:     482377 MISS:      22788
cpu0_STLB LOAD         ACCESS:     505165 HIT:     482377 MISS:      22788
cpu0_STLB RFO          ACCESS:          0 HIT:          0 MISS:          0
cpu0_STLB PREFETCH     ACCESS:          0 HIT:          0 MISS:          0
cpu0_STLB WRITE        ACCESS:          0 HIT:          0 MISS:          0
cpu0_STLB TRANSLATION  ACCESS:          0 HIT:          0 MISS:          0
cpu0_STLB PREFETCH REQUESTED:          0 ISSUED:          0 USEFUL:          0 USELESS:          0
cpu0_STLB AVERAGE MISS LATENCY: 221.2 cycles

DRAM Statistics

Channel 0 RQ ROW_BUFFER_HIT:      24211
  ROW_BUFFER_MISS:      94878
 AVG DBUS CONGESTED CYCLE: 3.85
WQ ROW_BUFFER_HIT: Channel 0 
  ROW_BUFFER_MISS:        848
  FULL:        900
