WARNING: physical memory size is smaller than virtual memory size.

*** ChampSim Multicore Out-of-Order Simulator ***
Warmup Instructions: 50000000
Simulation Instructions: 600000000
Number of CPUs: 1
Page size: 4096

Off-chip DRAM Size: 4 GiB Channels: 1 Width: 64-bit Data Race: 3200 MT/s
Heartbeat CPU 0 instructions: 10000000 cycles: 2500061 heartbeat IPC: 4 cumulative IPC: 4 (Simulation time: 00 hr 01 min 01 sec)
Heartbeat CPU 0 instructions: 20000000 cycles: 5000061 heartbeat IPC: 4 cumulative IPC: 4 (Simulation time: 00 hr 02 min 05 sec)
Heartbeat CPU 0 instructions: 30000000 cycles: 7500061 heartbeat IPC: 4 cumulative IPC: 4 (Simulation time: 00 hr 03 min 16 sec)
Heartbeat CPU 0 instructions: 40000000 cycles: 10000061 heartbeat IPC: 4 cumulative IPC: 4 (Simulation time: 00 hr 04 min 27 sec)
Heartbeat CPU 0 instructions: 50000000 cycles: 12500061 heartbeat IPC: 4 cumulative IPC: 4 (Simulation time: 00 hr 05 min 30 sec)
Warmup finished CPU 0 instructions: 50000000 cycles: 12500062 cumulative IPC: 4 (Simulation time: 00 hr 05 min 30 sec)
Warmup complete CPU 0 instructions: 50000000 cycles: 12500062 cumulative IPC: 4 (Simulation time: 00 hr 05 min 30 sec)
Heartbeat CPU 0 instructions: 60000002 cycles: 16435783 heartbeat IPC: 2.541 cumulative IPC: 2.541 (Simulation time: 00 hr 06 min 57 sec)
Heartbeat CPU 0 instructions: 70000003 cycles: 20749204 heartbeat IPC: 2.318 cumulative IPC: 2.424 (Simulation time: 00 hr 08 min 30 sec)
Heartbeat CPU 0 instructions: 80000003 cycles: 25212938 heartbeat IPC: 2.24 cumulative IPC: 2.36 (Simulation time: 00 hr 10 min 09 sec)
Heartbeat CPU 0 instructions: 90000000 cycles: 28902625 heartbeat IPC: 2.71 cumulative IPC: 2.439 (Simulation time: 00 hr 11 min 38 sec)
Heartbeat CPU 0 instructions: 100000003 cycles: 32797283 heartbeat IPC: 2.568 cumulative IPC: 2.463 (Simulation time: 00 hr 13 min 11 sec)
Heartbeat CPU 0 instructions: 110000002 cycles: 36888882 heartbeat IPC: 2.444 cumulative IPC: 2.46 (Simulation time: 00 hr 14 min 43 sec)
Heartbeat CPU 0 instructions: 120000001 cycles: 40602045 heartbeat IPC: 2.693 cumulative IPC: 2.491 (Simulation time: 00 hr 16 min 12 sec)
Heartbeat CPU 0 instructions: 130000003 cycles: 44366187 heartbeat IPC: 2.657 cumulative IPC: 2.511 (Simulation time: 00 hr 17 min 47 sec)
Heartbeat CPU 0 instructions: 140000002 cycles: 48491614 heartbeat IPC: 2.424 cumulative IPC: 2.501 (Simulation time: 00 hr 19 min 24 sec)
Heartbeat CPU 0 instructions: 150000001 cycles: 52535644 heartbeat IPC: 2.473 cumulative IPC: 2.498 (Simulation time: 00 hr 21 min 05 sec)
Heartbeat CPU 0 instructions: 160000000 cycles: 56184366 heartbeat IPC: 2.741 cumulative IPC: 2.518 (Simulation time: 00 hr 22 min 44 sec)
Heartbeat CPU 0 instructions: 170000001 cycles: 60350038 heartbeat IPC: 2.401 cumulative IPC: 2.508 (Simulation time: 00 hr 24 min 28 sec)
Heartbeat CPU 0 instructions: 180000001 cycles: 63805525 heartbeat IPC: 2.894 cumulative IPC: 2.534 (Simulation time: 00 hr 26 min 09 sec)
Heartbeat CPU 0 instructions: 190000002 cycles: 67382191 heartbeat IPC: 2.796 cumulative IPC: 2.551 (Simulation time: 00 hr 27 min 11 sec)
Heartbeat CPU 0 instructions: 200000002 cycles: 71153161 heartbeat IPC: 2.652 cumulative IPC: 2.557 (Simulation time: 00 hr 27 min 53 sec)
Heartbeat CPU 0 instructions: 210000000 cycles: 74788089 heartbeat IPC: 2.751 cumulative IPC: 2.569 (Simulation time: 00 hr 28 min 36 sec)
Heartbeat CPU 0 instructions: 220000001 cycles: 78655984 heartbeat IPC: 2.585 cumulative IPC: 2.57 (Simulation time: 00 hr 29 min 21 sec)
Heartbeat CPU 0 instructions: 230000002 cycles: 82491062 heartbeat IPC: 2.608 cumulative IPC: 2.572 (Simulation time: 00 hr 30 min 05 sec)
Heartbeat CPU 0 instructions: 240000001 cycles: 86693138 heartbeat IPC: 2.38 cumulative IPC: 2.561 (Simulation time: 00 hr 30 min 51 sec)
Heartbeat CPU 0 instructions: 250000003 cycles: 91251932 heartbeat IPC: 2.194 cumulative IPC: 2.54 (Simulation time: 00 hr 31 min 37 sec)
Heartbeat CPU 0 instructions: 260000000 cycles: 95043028 heartbeat IPC: 2.638 cumulative IPC: 2.544 (Simulation time: 00 hr 32 min 21 sec)
Heartbeat CPU 0 instructions: 270000003 cycles: 101666040 heartbeat IPC: 1.51 cumulative IPC: 2.467 (Simulation time: 00 hr 33 min 20 sec)
Heartbeat CPU 0 instructions: 280000000 cycles: 111310609 heartbeat IPC: 1.037 cumulative IPC: 2.328 (Simulation time: 00 hr 34 min 42 sec)
Heartbeat CPU 0 instructions: 290000000 cycles: 119908448 heartbeat IPC: 1.163 cumulative IPC: 2.234 (Simulation time: 00 hr 35 min 56 sec)
Heartbeat CPU 0 instructions: 300000003 cycles: 126986019 heartbeat IPC: 1.413 cumulative IPC: 2.184 (Simulation time: 00 hr 37 min 04 sec)
Heartbeat CPU 0 instructions: 310000004 cycles: 136769141 heartbeat IPC: 1.022 cumulative IPC: 2.092 (Simulation time: 00 hr 38 min 28 sec)
Heartbeat CPU 0 instructions: 320000004 cycles: 141638966 heartbeat IPC: 2.053 cumulative IPC: 2.091 (Simulation time: 00 hr 39 min 22 sec)
Heartbeat CPU 0 instructions: 330000000 cycles: 145650224 heartbeat IPC: 2.493 cumulative IPC: 2.103 (Simulation time: 00 hr 40 min 09 sec)
Heartbeat CPU 0 instructions: 340000001 cycles: 149610291 heartbeat IPC: 2.525 cumulative IPC: 2.115 (Simulation time: 00 hr 40 min 55 sec)
Heartbeat CPU 0 instructions: 350000004 cycles: 153681109 heartbeat IPC: 2.457 cumulative IPC: 2.125 (Simulation time: 00 hr 41 min 41 sec)
Heartbeat CPU 0 instructions: 360000003 cycles: 157493218 heartbeat IPC: 2.623 cumulative IPC: 2.138 (Simulation time: 00 hr 42 min 26 sec)
Heartbeat CPU 0 instructions: 370000001 cycles: 161281139 heartbeat IPC: 2.64 cumulative IPC: 2.151 (Simulation time: 00 hr 43 min 11 sec)
Heartbeat CPU 0 instructions: 380000004 cycles: 164928020 heartbeat IPC: 2.742 cumulative IPC: 2.165 (Simulation time: 00 hr 43 min 54 sec)
Heartbeat CPU 0 instructions: 390000002 cycles: 168645491 heartbeat IPC: 2.69 cumulative IPC: 2.177 (Simulation time: 00 hr 44 min 38 sec)
Heartbeat CPU 0 instructions: 400000000 cycles: 172644538 heartbeat IPC: 2.501 cumulative IPC: 2.186 (Simulation time: 00 hr 45 min 23 sec)
Heartbeat CPU 0 instructions: 410000000 cycles: 178469616 heartbeat IPC: 1.717 cumulative IPC: 2.169 (Simulation time: 00 hr 46 min 21 sec)
Heartbeat CPU 0 instructions: 420000003 cycles: 186386406 heartbeat IPC: 1.263 cumulative IPC: 2.128 (Simulation time: 00 hr 47 min 34 sec)
Heartbeat CPU 0 instructions: 430000000 cycles: 192891432 heartbeat IPC: 1.537 cumulative IPC: 2.107 (Simulation time: 00 hr 48 min 42 sec)
Heartbeat CPU 0 instructions: 440000004 cycles: 198927336 heartbeat IPC: 1.657 cumulative IPC: 2.092 (Simulation time: 00 hr 49 min 46 sec)
Heartbeat CPU 0 instructions: 450000001 cycles: 205248810 heartbeat IPC: 1.582 cumulative IPC: 2.075 (Simulation time: 00 hr 50 min 51 sec)
Heartbeat CPU 0 instructions: 460000002 cycles: 213528823 heartbeat IPC: 1.208 cumulative IPC: 2.04 (Simulation time: 00 hr 52 min 06 sec)
Heartbeat CPU 0 instructions: 470000003 cycles: 220699713 heartbeat IPC: 1.395 cumulative IPC: 2.017 (Simulation time: 00 hr 53 min 14 sec)
Heartbeat CPU 0 instructions: 480000003 cycles: 224647479 heartbeat IPC: 2.533 cumulative IPC: 2.027 (Simulation time: 00 hr 54 min 02 sec)
Heartbeat CPU 0 instructions: 490000001 cycles: 228869670 heartbeat IPC: 2.368 cumulative IPC: 2.034 (Simulation time: 00 hr 54 min 51 sec)
Heartbeat CPU 0 instructions: 500000002 cycles: 232887439 heartbeat IPC: 2.489 cumulative IPC: 2.042 (Simulation time: 00 hr 55 min 39 sec)
Heartbeat CPU 0 instructions: 510000000 cycles: 236740154 heartbeat IPC: 2.596 cumulative IPC: 2.051 (Simulation time: 00 hr 56 min 25 sec)
Heartbeat CPU 0 instructions: 520000000 cycles: 240749553 heartbeat IPC: 2.494 cumulative IPC: 2.059 (Simulation time: 00 hr 57 min 12 sec)
Heartbeat CPU 0 instructions: 530000001 cycles: 248866935 heartbeat IPC: 1.232 cumulative IPC: 2.031 (Simulation time: 00 hr 58 min 23 sec)
Heartbeat CPU 0 instructions: 540000000 cycles: 256898156 heartbeat IPC: 1.245 cumulative IPC: 2.005 (Simulation time: 00 hr 59 min 36 sec)
Heartbeat CPU 0 instructions: 550000004 cycles: 265598793 heartbeat IPC: 1.149 cumulative IPC: 1.976 (Simulation time: 01 hr 00 min 51 sec)
Heartbeat CPU 0 instructions: 560000004 cycles: 269490028 heartbeat IPC: 2.57 cumulative IPC: 1.985 (Simulation time: 01 hr 01 min 36 sec)
Heartbeat CPU 0 instructions: 570000001 cycles: 272588191 heartbeat IPC: 3.228 cumulative IPC: 1.999 (Simulation time: 01 hr 02 min 18 sec)
Heartbeat CPU 0 instructions: 580000003 cycles: 276064288 heartbeat IPC: 2.877 cumulative IPC: 2.011 (Simulation time: 01 hr 03 min 00 sec)
Heartbeat CPU 0 instructions: 590000002 cycles: 279634844 heartbeat IPC: 2.801 cumulative IPC: 2.021 (Simulation time: 01 hr 03 min 44 sec)
Heartbeat CPU 0 instructions: 600000003 cycles: 282664623 heartbeat IPC: 3.301 cumulative IPC: 2.036 (Simulation time: 01 hr 04 min 27 sec)
Heartbeat CPU 0 instructions: 610000001 cycles: 286130564 heartbeat IPC: 2.885 cumulative IPC: 2.047 (Simulation time: 01 hr 05 min 13 sec)
Heartbeat CPU 0 instructions: 620000000 cycles: 290111286 heartbeat IPC: 2.512 cumulative IPC: 2.053 (Simulation time: 01 hr 06 min 03 sec)
Heartbeat CPU 0 instructions: 630000002 cycles: 293447906 heartbeat IPC: 2.997 cumulative IPC: 2.064 (Simulation time: 01 hr 06 min 45 sec)
Heartbeat CPU 0 instructions: 640000004 cycles: 297429253 heartbeat IPC: 2.512 cumulative IPC: 2.071 (Simulation time: 01 hr 07 min 33 sec)
Heartbeat CPU 0 instructions: 650000001 cycles: 301234603 heartbeat IPC: 2.628 cumulative IPC: 2.078 (Simulation time: 01 hr 08 min 17 sec)
Simulation finished CPU 0 instructions: 600000001 cycles: 288734542 cumulative IPC: 2.078 (Simulation time: 01 hr 08 min 17 sec)
Simulation complete CPU 0 instructions: 600000001 cycles: 288734542 cumulative IPC: 2.078 (Simulation time: 01 hr 08 min 17 sec)

ChampSim completed all CPUs

=== Simulation ===
CPU 0 runs traces/400.perlbench-50B.champsimtrace.xz
Region of Interest Statistics

CPU 0 cumulative IPC: 2.078 instructions: 600000001 cycles: 288734542
CPU 0 Branch Prediction Accuracy: 96.2% MPKI: 7.839 Average ROB Occupancy at Mispredict: 43.1
Branch type MPKI
BRANCH_DIRECT_JUMP: 0.0176
BRANCH_INDIRECT: 0.38
BRANCH_CONDITIONAL: 6.99
BRANCH_DIRECT_CALL: 0.0067
BRANCH_INDIRECT_CALL: 0.431
BRANCH_RETURN: 0.0161

LLC TOTAL        ACCESS:    1353746 HIT:    1095604 MISS:     258142
LLC LOAD         ACCESS:     578552 HIT:     463945 MISS:     114607
LLC RFO          ACCESS:      47372 HIT:      35937 MISS:      11435
LLC PREFETCH     ACCESS:     578552 HIT:     456073 MISS:     122479
LLC WRITE        ACCESS:     127180 HIT:     127160 MISS:         20
LLC TRANSLATION  ACCESS:      22090 HIT:      12489 MISS:       9601
LLC PREFETCH REQUESTED:     578552 ISSUED:     578552 USEFUL:      49178 USELESS:      21424
LLC AVERAGE MISS LATENCY: 465.2 cycles
cpu0_DTLB TOTAL        ACCESS:  146525088 HIT:  145219929 MISS:    1305159
cpu0_DTLB LOAD         ACCESS:  146525088 HIT:  145219929 MISS:    1305159
cpu0_DTLB RFO          ACCESS:          0 HIT:          0 MISS:          0
cpu0_DTLB PREFETCH     ACCESS:          0 HIT:          0 MISS:          0
cpu0_DTLB WRITE        ACCESS:          0 HIT:          0 MISS:          0
cpu0_DTLB TRANSLATION  ACCESS:          0 HIT:          0 MISS:          0
cpu0_DTLB PREFETCH REQUESTED:          0 ISSUED:          0 USEFUL:          0 USELESS:          0
cpu0_DTLB AVERAGE MISS LATENCY: 10.33 cycles
cpu0_ITLB TOTAL        ACCESS:    8984642 HIT:    8800149 MISS:     184493
cpu0_ITLB LOAD         ACCESS:    8984642 HIT:    8800149 MISS:     184493
cpu0_ITLB RFO          ACCESS:          0 HIT:          0 MISS:          0
cpu0_ITLB PREFETCH     ACCESS:          0 HIT:          0 MISS:          0
cpu0_ITLB WRITE        ACCESS:          0 HIT:          0 MISS:          0
cpu0_ITLB TRANSLATION  ACCESS:          0 HIT:          0 MISS:          0
cpu0_ITLB PREFETCH REQUESTED:          0 ISSUED:          0 USEFUL:          0 USELESS:          0
cpu0_ITLB AVERAGE MISS LATENCY: 3.074 cycles
cpu0_L1D TOTAL        ACCESS:  193323414 HIT:  189686020 MISS:    3637394
cpu0_L1D LOAD         ACCESS:  107477093 HIT:  104480382 MISS:    2996711
cpu0_L1D RFO          ACCESS:          0 HIT:          0 MISS:          0
cpu0_L1D PREFETCH     ACCESS:          0 HIT:          0 MISS:          0
cpu0_L1D WRITE        ACCESS:   85817799 HIT:   85204212 MISS:     613587
cpu0_L1D TRANSLATION  ACCESS:      28522 HIT:       1426 MISS:      27096
cpu0_L1D PREFETCH REQUESTED:          0 ISSUED:          0 USEFUL:          0 USELESS:          0
cpu0_L1D AVERAGE MISS LATENCY: 25.77 cycles
cpu0_L1I TOTAL        ACCESS:   10419588 HIT:    8657919 MISS:    1761669
cpu0_L1I LOAD         ACCESS:   10419588 HIT:    8657919 MISS:    1761669
cpu0_L1I RFO          ACCESS:          0 HIT:          0 MISS:          0
cpu0_L1I PREFETCH     ACCESS:          0 HIT:          0 MISS:          0
cpu0_L1I WRITE        ACCESS:          0 HIT:          0 MISS:          0
cpu0_L1I TRANSLATION  ACCESS:          0 HIT:          0 MISS:          0
cpu0_L1I PREFETCH REQUESTED:          0 ISSUED:          0 USEFUL:          0 USELESS:          0
cpu0_L1I AVERAGE MISS LATENCY: 9.179 cycles
cpu0_L2C TOTAL        ACCESS:    3834708 HIT:    3183617 MISS:     651091
cpu0_L2C LOAD         ACCESS:    3104996 HIT:    2526444 MISS:     578552
cpu0_L2C RFO          ACCESS:     191516 HIT:     144143 MISS:      47373
cpu0_L2C PREFETCH     ACCESS:          0 HIT:          0 MISS:          0
cpu0_L2C WRITE        ACCESS:     511163 HIT:     508087 MISS:       3076
cpu0_L2C TRANSLATION  ACCESS:      27033 HIT:       4943 MISS:      22090
cpu0_L2C PREFETCH REQUESTED:          0 ISSUED:          0 USEFUL:          0 USELESS:          0
cpu0_L2C AVERAGE MISS LATENCY: 126.7 cycles
cpu0_STLB TOTAL        ACCESS:    1008353 HIT:     981660 MISS:      26693
cpu0_STLB LOAD         ACCESS:    1008353 HIT:     981660 MISS:      26693
cpu0_STLB RFO          ACCESS:          0 HIT:          0 MISS:          0
cpu0_STLB PREFETCH     ACCESS:          0 HIT:          0 MISS:          0
cpu0_STLB WRITE        ACCESS:          0 HIT:          0 MISS:          0
cpu0_STLB TRANSLATION  ACCESS:          0 HIT:          0 MISS:          0
cpu0_STLB PREFETCH REQUESTED:          0 ISSUED:          0 USEFUL:          0 USELESS:          0
cpu0_STLB AVERAGE MISS LATENCY: 279.8 cycles

DRAM Statistics

Channel 0 RQ ROW_BUFFER_HIT:      60464
  ROW_BUFFER_MISS:     158658
 AVG DBUS CONGESTED CYCLE: 3.82
WQ ROW_BUFFER_HIT: Channel 0 
  ROW_BUFFER_MISS:       4144
  FULL:       7876
