WARNING: physical memory size is smaller than virtual memory size.

*** ChampSim Multicore Out-of-Order Simulator ***
Warmup Instructions: 50000000
Simulation Instructions: 600000000
Number of CPUs: 1
Page size: 4096

Off-chip DRAM Size: 4 GiB Channels: 1 Width: 64-bit Data Race: 3200 MT/s
Heartbeat CPU 0 instructions: 10000000 cycles: 2500062 heartbeat IPC: 4 cumulative IPC: 4 (Simulation time: 00 hr 01 min 02 sec)
Heartbeat CPU 0 instructions: 20000000 cycles: 5000062 heartbeat IPC: 4 cumulative IPC: 4 (Simulation time: 00 hr 02 min 47 sec)
Heartbeat CPU 0 instructions: 30000000 cycles: 7500062 heartbeat IPC: 4 cumulative IPC: 4 (Simulation time: 00 hr 05 min 22 sec)
Heartbeat CPU 0 instructions: 40000000 cycles: 10000062 heartbeat IPC: 4 cumulative IPC: 4 (Simulation time: 00 hr 08 min 38 sec)
Heartbeat CPU 0 instructions: 50000000 cycles: 12500062 heartbeat IPC: 4 cumulative IPC: 4 (Simulation time: 00 hr 11 min 54 sec)
Warmup finished CPU 0 instructions: 50000000 cycles: 12500063 cumulative IPC: 4 (Simulation time: 00 hr 11 min 54 sec)
Warmup complete CPU 0 instructions: 50000000 cycles: 12500063 cumulative IPC: 4 (Simulation time: 00 hr 11 min 54 sec)
Heartbeat CPU 0 instructions: 60000002 cycles: 16473434 heartbeat IPC: 2.517 cumulative IPC: 2.517 (Simulation time: 00 hr 16 min 26 sec)
Heartbeat CPU 0 instructions: 70000003 cycles: 20817115 heartbeat IPC: 2.302 cumulative IPC: 2.405 (Simulation time: 00 hr 21 min 05 sec)
Heartbeat CPU 0 instructions: 80000003 cycles: 25323168 heartbeat IPC: 2.219 cumulative IPC: 2.34 (Simulation time: 00 hr 25 min 50 sec)
Heartbeat CPU 0 instructions: 90000000 cycles: 29028663 heartbeat IPC: 2.699 cumulative IPC: 2.42 (Simulation time: 00 hr 30 min 11 sec)
Heartbeat CPU 0 instructions: 100000003 cycles: 32957165 heartbeat IPC: 2.546 cumulative IPC: 2.444 (Simulation time: 00 hr 34 min 41 sec)
Heartbeat CPU 0 instructions: 110000002 cycles: 37070367 heartbeat IPC: 2.431 cumulative IPC: 2.442 (Simulation time: 00 hr 39 min 12 sec)
Heartbeat CPU 0 instructions: 120000001 cycles: 40793865 heartbeat IPC: 2.686 cumulative IPC: 2.474 (Simulation time: 00 hr 43 min 37 sec)
Heartbeat CPU 0 instructions: 130000003 cycles: 44608253 heartbeat IPC: 2.622 cumulative IPC: 2.492 (Simulation time: 00 hr 48 min 04 sec)
Heartbeat CPU 0 instructions: 140000002 cycles: 48748440 heartbeat IPC: 2.415 cumulative IPC: 2.483 (Simulation time: 00 hr 52 min 39 sec)
Heartbeat CPU 0 instructions: 150000001 cycles: 52813003 heartbeat IPC: 2.46 cumulative IPC: 2.481 (Simulation time: 00 hr 57 min 10 sec)
Heartbeat CPU 0 instructions: 160000000 cycles: 56491311 heartbeat IPC: 2.719 cumulative IPC: 2.5 (Simulation time: 01 hr 01 min 29 sec)
Heartbeat CPU 0 instructions: 170000001 cycles: 60686320 heartbeat IPC: 2.384 cumulative IPC: 2.49 (Simulation time: 01 hr 06 min 04 sec)
Heartbeat CPU 0 instructions: 180000001 cycles: 64167973 heartbeat IPC: 2.872 cumulative IPC: 2.516 (Simulation time: 01 hr 10 min 20 sec)
Heartbeat CPU 0 instructions: 190000002 cycles: 67761772 heartbeat IPC: 2.783 cumulative IPC: 2.533 (Simulation time: 01 hr 14 min 43 sec)
Heartbeat CPU 0 instructions: 200000002 cycles: 71563021 heartbeat IPC: 2.631 cumulative IPC: 2.54 (Simulation time: 01 hr 19 min 08 sec)
Heartbeat CPU 0 instructions: 210000000 cycles: 75207378 heartbeat IPC: 2.744 cumulative IPC: 2.552 (Simulation time: 01 hr 23 min 27 sec)
Heartbeat CPU 0 instructions: 220000001 cycles: 79104840 heartbeat IPC: 2.566 cumulative IPC: 2.552 (Simulation time: 01 hr 27 min 53 sec)
Heartbeat CPU 0 instructions: 230000002 cycles: 82972519 heartbeat IPC: 2.586 cumulative IPC: 2.554 (Simulation time: 01 hr 32 min 21 sec)
Heartbeat CPU 0 instructions: 240000001 cycles: 87189356 heartbeat IPC: 2.371 cumulative IPC: 2.544 (Simulation time: 01 hr 37 min 01 sec)
Heartbeat CPU 0 instructions: 250000003 cycles: 91787689 heartbeat IPC: 2.175 cumulative IPC: 2.522 (Simulation time: 01 hr 41 min 48 sec)
Heartbeat CPU 0 instructions: 260000000 cycles: 95597454 heartbeat IPC: 2.625 cumulative IPC: 2.527 (Simulation time: 01 hr 46 min 14 sec)
Heartbeat CPU 0 instructions: 270000003 cycles: 102453381 heartbeat IPC: 1.459 cumulative IPC: 2.446 (Simulation time: 01 hr 52 min 37 sec)
Heartbeat CPU 0 instructions: 280000000 cycles: 112410414 heartbeat IPC: 1.004 cumulative IPC: 2.302 (Simulation time: 02 hr 01 min 08 sec)
Heartbeat CPU 0 instructions: 290000000 cycles: 121199711 heartbeat IPC: 1.138 cumulative IPC: 2.208 (Simulation time: 02 hr 09 min 02 sec)
Heartbeat CPU 0 instructions: 300000003 cycles: 128243086 heartbeat IPC: 1.42 cumulative IPC: 2.16 (Simulation time: 02 hr 15 min 56 sec)
Heartbeat CPU 0 instructions: 310000004 cycles: 137907838 heartbeat IPC: 1.035 cumulative IPC: 2.073 (Simulation time: 02 hr 24 min 26 sec)
Heartbeat CPU 0 instructions: 320000004 cycles: 142789364 heartbeat IPC: 2.049 cumulative IPC: 2.072 (Simulation time: 02 hr 29 min 48 sec)
Heartbeat CPU 0 instructions: 330000000 cycles: 146804354 heartbeat IPC: 2.491 cumulative IPC: 2.085 (Simulation time: 02 hr 34 min 29 sec)
Heartbeat CPU 0 instructions: 340000001 cycles: 150938757 heartbeat IPC: 2.419 cumulative IPC: 2.095 (Simulation time: 02 hr 39 min 11 sec)
Heartbeat CPU 0 instructions: 350000004 cycles: 155212444 heartbeat IPC: 2.34 cumulative IPC: 2.102 (Simulation time: 02 hr 43 min 58 sec)
Heartbeat CPU 0 instructions: 360000003 cycles: 159198007 heartbeat IPC: 2.509 cumulative IPC: 2.113 (Simulation time: 02 hr 48 min 36 sec)
Heartbeat CPU 0 instructions: 370000001 cycles: 163139298 heartbeat IPC: 2.537 cumulative IPC: 2.124 (Simulation time: 02 hr 53 min 12 sec)
Heartbeat CPU 0 instructions: 380000004 cycles: 166934560 heartbeat IPC: 2.635 cumulative IPC: 2.137 (Simulation time: 02 hr 57 min 44 sec)
Heartbeat CPU 0 instructions: 390000002 cycles: 170813527 heartbeat IPC: 2.578 cumulative IPC: 2.148 (Simulation time: 03 hr 02 min 20 sec)
Heartbeat CPU 0 instructions: 400000000 cycles: 174948205 heartbeat IPC: 2.419 cumulative IPC: 2.155 (Simulation time: 03 hr 07 min 04 sec)
Heartbeat CPU 0 instructions: 410000000 cycles: 181352872 heartbeat IPC: 1.561 cumulative IPC: 2.132 (Simulation time: 03 hr 13 min 19 sec)
Heartbeat CPU 0 instructions: 420000003 cycles: 190127536 heartbeat IPC: 1.14 cumulative IPC: 2.083 (Simulation time: 03 hr 21 min 07 sec)
Heartbeat CPU 0 instructions: 430000000 cycles: 196868573 heartbeat IPC: 1.483 cumulative IPC: 2.061 (Simulation time: 03 hr 27 min 48 sec)
Heartbeat CPU 0 instructions: 440000004 cycles: 203051791 heartbeat IPC: 1.617 cumulative IPC: 2.047 (Simulation time: 03 hr 34 min 04 sec)
Heartbeat CPU 0 instructions: 450000001 cycles: 209460059 heartbeat IPC: 1.56 cumulative IPC: 2.031 (Simulation time: 03 hr 40 min 24 sec)
Heartbeat CPU 0 instructions: 460000002 cycles: 218024214 heartbeat IPC: 1.168 cumulative IPC: 1.995 (Simulation time: 03 hr 48 min 13 sec)
Heartbeat CPU 0 instructions: 470000003 cycles: 225892848 heartbeat IPC: 1.271 cumulative IPC: 1.968 (Simulation time: 03 hr 55 min 31 sec)
Heartbeat CPU 0 instructions: 480000003 cycles: 230021971 heartbeat IPC: 2.422 cumulative IPC: 1.977 (Simulation time: 04 hr 00 min 20 sec)
Heartbeat CPU 0 instructions: 490000001 cycles: 234637346 heartbeat IPC: 2.167 cumulative IPC: 1.981 (Simulation time: 04 hr 05 min 21 sec)
Heartbeat CPU 0 instructions: 500000002 cycles: 238963826 heartbeat IPC: 2.311 cumulative IPC: 1.987 (Simulation time: 04 hr 10 min 10 sec)
Heartbeat CPU 0 instructions: 510000000 cycles: 243131984 heartbeat IPC: 2.399 cumulative IPC: 1.995 (Simulation time: 04 hr 14 min 59 sec)
Heartbeat CPU 0 instructions: 520000000 cycles: 247387682 heartbeat IPC: 2.35 cumulative IPC: 2.001 (Simulation time: 04 hr 19 min 46 sec)
Heartbeat CPU 0 instructions: 530000001 cycles: 256608419 heartbeat IPC: 1.085 cumulative IPC: 1.966 (Simulation time: 04 hr 27 min 48 sec)
Heartbeat CPU 0 instructions: 540000000 cycles: 265264236 heartbeat IPC: 1.155 cumulative IPC: 1.939 (Simulation time: 04 hr 35 min 37 sec)
Heartbeat CPU 0 instructions: 550000004 cycles: 274974415 heartbeat IPC: 1.03 cumulative IPC: 1.905 (Simulation time: 04 hr 44 min 03 sec)
Heartbeat CPU 0 instructions: 560000004 cycles: 278947508 heartbeat IPC: 2.517 cumulative IPC: 1.914 (Simulation time: 04 hr 48 min 38 sec)
Heartbeat CPU 0 instructions: 570000001 cycles: 282058185 heartbeat IPC: 3.215 cumulative IPC: 1.929 (Simulation time: 04 hr 52 min 58 sec)
Heartbeat CPU 0 instructions: 580000003 cycles: 285572701 heartbeat IPC: 2.845 cumulative IPC: 1.941 (Simulation time: 04 hr 57 min 28 sec)
Heartbeat CPU 0 instructions: 590000002 cycles: 289172664 heartbeat IPC: 2.778 cumulative IPC: 1.952 (Simulation time: 05 hr 01 min 49 sec)
Heartbeat CPU 0 instructions: 600000003 cycles: 292218237 heartbeat IPC: 3.283 cumulative IPC: 1.966 (Simulation time: 05 hr 06 min 00 sec)
Heartbeat CPU 0 instructions: 610000001 cycles: 295703743 heartbeat IPC: 2.869 cumulative IPC: 1.977 (Simulation time: 05 hr 10 min 27 sec)
Heartbeat CPU 0 instructions: 620000000 cycles: 299699608 heartbeat IPC: 2.503 cumulative IPC: 1.985 (Simulation time: 05 hr 15 min 10 sec)
Heartbeat CPU 0 instructions: 630000002 cycles: 303052244 heartbeat IPC: 2.983 cumulative IPC: 1.996 (Simulation time: 05 hr 19 min 26 sec)
Heartbeat CPU 0 instructions: 640000004 cycles: 307042726 heartbeat IPC: 2.506 cumulative IPC: 2.003 (Simulation time: 05 hr 24 min 00 sec)
Heartbeat CPU 0 instructions: 650000001 cycles: 310857139 heartbeat IPC: 2.622 cumulative IPC: 2.011 (Simulation time: 05 hr 28 min 41 sec)
Simulation finished CPU 0 instructions: 600000001 cycles: 298357077 cumulative IPC: 2.011 (Simulation time: 05 hr 28 min 41 sec)
Simulation complete CPU 0 instructions: 600000001 cycles: 298357077 cumulative IPC: 2.011 (Simulation time: 05 hr 28 min 41 sec)

ChampSim completed all CPUs

=== Simulation ===
CPU 0 runs traces/400.perlbench-50B.champsimtrace.xz
Region of Interest Statistics

CPU 0 cumulative IPC: 2.011 instructions: 600000001 cycles: 298357077
CPU 0 Branch Prediction Accuracy: 96.2% MPKI: 7.839 Average ROB Occupancy at Mispredict: 43.32
Branch type MPKI
BRANCH_DIRECT_JUMP: 0.0176
BRANCH_INDIRECT: 0.38
BRANCH_CONDITIONAL: 6.99
BRANCH_DIRECT_CALL: 0.0067
BRANCH_INDIRECT_CALL: 0.431
BRANCH_RETURN: 0.0161

LLC TOTAL        ACCESS:    1208942 HIT:     873701 MISS:     335241
LLC LOAD         ACCESS:     585077 HIT:     458401 MISS:     126676
LLC RFO          ACCESS:      47199 HIT:      33984 MISS:      13215
LLC PREFETCH     ACCESS:     427056 HIT:     241583 MISS:     185473
LLC WRITE        ACCESS:     127613 HIT:     127515 MISS:         98
LLC TRANSLATION  ACCESS:      21997 HIT:      12218 MISS:       9779
LLC PREFETCH REQUESTED:     427090 ISSUED:     427056 USEFUL:      71774 USELESS:      67180
LLC AVERAGE MISS LATENCY: 644.8 cycles
cpu0_DTLB TOTAL        ACCESS:  146508442 HIT:  145203702 MISS:    1304740
cpu0_DTLB LOAD         ACCESS:  146508442 HIT:  145203702 MISS:    1304740
cpu0_DTLB RFO          ACCESS:          0 HIT:          0 MISS:          0
cpu0_DTLB PREFETCH     ACCESS:          0 HIT:          0 MISS:          0
cpu0_DTLB WRITE        ACCESS:          0 HIT:          0 MISS:          0
cpu0_DTLB TRANSLATION  ACCESS:          0 HIT:          0 MISS:          0
cpu0_DTLB PREFETCH REQUESTED:          0 ISSUED:          0 USEFUL:          0 USELESS:          0
cpu0_DTLB AVERAGE MISS LATENCY: 10.76 cycles
cpu0_ITLB TOTAL        ACCESS:    8987215 HIT:    8802616 MISS:     184599
cpu0_ITLB LOAD         ACCESS:    8987215 HIT:    8802616 MISS:     184599
cpu0_ITLB RFO          ACCESS:          0 HIT:          0 MISS:          0
cpu0_ITLB PREFETCH     ACCESS:          0 HIT:          0 MISS:          0
cpu0_ITLB WRITE        ACCESS:          0 HIT:          0 MISS:          0
cpu0_ITLB TRANSLATION  ACCESS:          0 HIT:          0 MISS:          0
cpu0_ITLB PREFETCH REQUESTED:          0 ISSUED:          0 USEFUL:          0 USELESS:          0
cpu0_ITLB AVERAGE MISS LATENCY: 3.254 cycles
cpu0_L1D TOTAL        ACCESS:  193299916 HIT:  189661171 MISS:    3638745
cpu0_L1D LOAD         ACCESS:  107453206 HIT:  104457540 MISS:    2995666
cpu0_L1D RFO          ACCESS:          0 HIT:          0 MISS:          0
cpu0_L1D PREFETCH     ACCESS:          0 HIT:          0 MISS:          0
cpu0_L1D WRITE        ACCESS:   85818186 HIT:   85202204 MISS:     615982
cpu0_L1D TRANSLATION  ACCESS:      28524 HIT:       1427 MISS:      27097
cpu0_L1D PREFETCH REQUESTED:          0 ISSUED:          0 USEFUL:          0 USELESS:          0
cpu0_L1D AVERAGE MISS LATENCY: 30.86 cycles
cpu0_L1I TOTAL        ACCESS:   10421625 HIT:    8659532 MISS:    1762093
cpu0_L1I LOAD         ACCESS:   10421625 HIT:    8659532 MISS:    1762093
cpu0_L1I RFO          ACCESS:          0 HIT:          0 MISS:          0
cpu0_L1I PREFETCH     ACCESS:          0 HIT:          0 MISS:          0
cpu0_L1I WRITE        ACCESS:          0 HIT:          0 MISS:          0
cpu0_L1I TRANSLATION  ACCESS:          0 HIT:          0 MISS:          0
cpu0_L1I PREFETCH REQUESTED:          0 ISSUED:          0 USEFUL:          0 USELESS:          0
cpu0_L1I AVERAGE MISS LATENCY: 9.59 cycles
cpu0_L2C TOTAL        ACCESS:    3834553 HIT:    3177015 MISS:     657538
cpu0_L2C LOAD         ACCESS:    3104927 HIT:    2519850 MISS:     585077
cpu0_L2C RFO          ACCESS:     191538 HIT:     144339 MISS:      47199
cpu0_L2C PREFETCH     ACCESS:          0 HIT:          0 MISS:          0
cpu0_L2C WRITE        ACCESS:     511055 HIT:     507790 MISS:       3265
cpu0_L2C TRANSLATION  ACCESS:      27033 HIT:       5036 MISS:      21997
cpu0_L2C PREFETCH REQUESTED:          0 ISSUED:          0 USEFUL:          0 USELESS:          0
cpu0_L2C AVERAGE MISS LATENCY: 155.3 cycles
cpu0_STLB TOTAL        ACCESS:    1008319 HIT:     981625 MISS:      26694
cpu0_STLB LOAD         ACCESS:    1008319 HIT:     981625 MISS:      26694
cpu0_STLB RFO          ACCESS:          0 HIT:          0 MISS:          0
cpu0_STLB PREFETCH     ACCESS:          0 HIT:          0 MISS:          0
cpu0_STLB WRITE        ACCESS:          0 HIT:          0 MISS:          0
cpu0_STLB TRANSLATION  ACCESS:          0 HIT:          0 MISS:          0
cpu0_STLB PREFETCH REQUESTED:          0 ISSUED:          0 USEFUL:          0 USELESS:          0
cpu0_STLB AVERAGE MISS LATENCY: 303.3 cycles

DRAM Statistics

Channel 0 RQ ROW_BUFFER_HIT:     134282
  ROW_BUFFER_MISS:     191917
 AVG DBUS CONGESTED CYCLE: 3.891
WQ ROW_BUFFER_HIT: Channel 0 
  ROW_BUFFER_MISS:       4413
  FULL:      15311
