WARNING: physical memory size is smaller than virtual memory size.

*** ChampSim Multicore Out-of-Order Simulator ***
Warmup Instructions: 50000000
Simulation Instructions: 600000000
Number of CPUs: 1
Page size: 4096

CPU 0 Tage branch predictor
Off-chip DRAM Size: 4 GiB Channels: 1 Width: 64-bit Data Race: 3200 MT/s
Heartbeat CPU 0 instructions: 10000001 cycles: 2500318 heartbeat IPC: 3.999 cumulative IPC: 3.999 (Simulation time: 00 hr 04 min 18 sec)
Heartbeat CPU 0 instructions: 20000002 cycles: 5037108 heartbeat IPC: 3.942 cumulative IPC: 3.971 (Simulation time: 00 hr 08 min 44 sec)
Heartbeat CPU 0 instructions: 30000002 cycles: 7537108 heartbeat IPC: 4 cumulative IPC: 3.98 (Simulation time: 00 hr 12 min 48 sec)
Heartbeat CPU 0 instructions: 40000002 cycles: 10037108 heartbeat IPC: 4 cumulative IPC: 3.985 (Simulation time: 00 hr 16 min 47 sec)
Heartbeat CPU 0 instructions: 50000002 cycles: 12537108 heartbeat IPC: 4 cumulative IPC: 3.988 (Simulation time: 00 hr 20 min 40 sec)
Warmup finished CPU 0 instructions: 50000002 cycles: 12537109 cumulative IPC: 3.988 (Simulation time: 00 hr 20 min 40 sec)
Warmup complete CPU 0 instructions: 50000002 cycles: 12537109 cumulative IPC: 3.988 (Simulation time: 00 hr 20 min 40 sec)
Heartbeat CPU 0 instructions: 60000001 cycles: 15500519 heartbeat IPC: 3.374 cumulative IPC: 3.374 (Simulation time: 00 hr 25 min 07 sec)
Heartbeat CPU 0 instructions: 70000004 cycles: 18558881 heartbeat IPC: 3.27 cumulative IPC: 3.321 (Simulation time: 00 hr 29 min 25 sec)
Heartbeat CPU 0 instructions: 80000001 cycles: 21593779 heartbeat IPC: 3.295 cumulative IPC: 3.312 (Simulation time: 00 hr 33 min 35 sec)
Heartbeat CPU 0 instructions: 90000001 cycles: 24530031 heartbeat IPC: 3.406 cumulative IPC: 3.335 (Simulation time: 00 hr 37 min 36 sec)
Heartbeat CPU 0 instructions: 100000000 cycles: 27433011 heartbeat IPC: 3.445 cumulative IPC: 3.357 (Simulation time: 00 hr 41 min 31 sec)
Heartbeat CPU 0 instructions: 110000000 cycles: 30370084 heartbeat IPC: 3.405 cumulative IPC: 3.365 (Simulation time: 00 hr 45 min 19 sec)
Heartbeat CPU 0 instructions: 120000001 cycles: 33331304 heartbeat IPC: 3.377 cumulative IPC: 3.366 (Simulation time: 00 hr 49 min 05 sec)
Heartbeat CPU 0 instructions: 130000001 cycles: 36173985 heartbeat IPC: 3.518 cumulative IPC: 3.385 (Simulation time: 00 hr 52 min 54 sec)
Heartbeat CPU 0 instructions: 140000001 cycles: 39197888 heartbeat IPC: 3.307 cumulative IPC: 3.376 (Simulation time: 00 hr 56 min 44 sec)
Heartbeat CPU 0 instructions: 150000001 cycles: 42189848 heartbeat IPC: 3.342 cumulative IPC: 3.372 (Simulation time: 01 hr 00 min 36 sec)
Heartbeat CPU 0 instructions: 160000004 cycles: 45180017 heartbeat IPC: 3.344 cumulative IPC: 3.37 (Simulation time: 01 hr 04 min 24 sec)
Heartbeat CPU 0 instructions: 170000000 cycles: 51430737 heartbeat IPC: 1.6 cumulative IPC: 3.085 (Simulation time: 01 hr 09 min 59 sec)
Heartbeat CPU 0 instructions: 180000004 cycles: 57668486 heartbeat IPC: 1.603 cumulative IPC: 2.88 (Simulation time: 01 hr 15 min 40 sec)
Heartbeat CPU 0 instructions: 190000001 cycles: 64754220 heartbeat IPC: 1.411 cumulative IPC: 2.681 (Simulation time: 01 hr 21 min 43 sec)
Heartbeat CPU 0 instructions: 200000004 cycles: 67667283 heartbeat IPC: 3.433 cumulative IPC: 2.721 (Simulation time: 01 hr 25 min 50 sec)
Heartbeat CPU 0 instructions: 210000001 cycles: 70588109 heartbeat IPC: 3.424 cumulative IPC: 2.756 (Simulation time: 01 hr 30 min 01 sec)
Heartbeat CPU 0 instructions: 220000000 cycles: 73459524 heartbeat IPC: 3.483 cumulative IPC: 2.79 (Simulation time: 01 hr 34 min 09 sec)
Heartbeat CPU 0 instructions: 230000002 cycles: 76407998 heartbeat IPC: 3.392 cumulative IPC: 2.818 (Simulation time: 01 hr 38 min 21 sec)
Heartbeat CPU 0 instructions: 240000003 cycles: 79395580 heartbeat IPC: 3.347 cumulative IPC: 2.842 (Simulation time: 01 hr 42 min 32 sec)
Heartbeat CPU 0 instructions: 250000000 cycles: 82368300 heartbeat IPC: 3.364 cumulative IPC: 2.864 (Simulation time: 01 hr 46 min 43 sec)
Heartbeat CPU 0 instructions: 260000002 cycles: 85291153 heartbeat IPC: 3.421 cumulative IPC: 2.886 (Simulation time: 01 hr 50 min 52 sec)
Heartbeat CPU 0 instructions: 270000002 cycles: 88163659 heartbeat IPC: 3.481 cumulative IPC: 2.909 (Simulation time: 01 hr 54 min 56 sec)
Heartbeat CPU 0 instructions: 280000002 cycles: 91012172 heartbeat IPC: 3.511 cumulative IPC: 2.931 (Simulation time: 01 hr 59 min 03 sec)
Heartbeat CPU 0 instructions: 290000002 cycles: 93933529 heartbeat IPC: 3.423 cumulative IPC: 2.949 (Simulation time: 02 hr 03 min 11 sec)
Heartbeat CPU 0 instructions: 300000003 cycles: 96768903 heartbeat IPC: 3.527 cumulative IPC: 2.968 (Simulation time: 02 hr 07 min 20 sec)
Heartbeat CPU 0 instructions: 310000001 cycles: 99733529 heartbeat IPC: 3.373 cumulative IPC: 2.982 (Simulation time: 02 hr 11 min 30 sec)
Heartbeat CPU 0 instructions: 320000003 cycles: 102691187 heartbeat IPC: 3.381 cumulative IPC: 2.995 (Simulation time: 02 hr 15 min 39 sec)
Heartbeat CPU 0 instructions: 330000003 cycles: 105614298 heartbeat IPC: 3.421 cumulative IPC: 3.008 (Simulation time: 02 hr 19 min 48 sec)
Heartbeat CPU 0 instructions: 340000000 cycles: 111741471 heartbeat IPC: 1.632 cumulative IPC: 2.923 (Simulation time: 02 hr 25 min 53 sec)
Heartbeat CPU 0 instructions: 350000000 cycles: 118064952 heartbeat IPC: 1.581 cumulative IPC: 2.843 (Simulation time: 02 hr 32 min 06 sec)
Heartbeat CPU 0 instructions: 360000004 cycles: 125175741 heartbeat IPC: 1.406 cumulative IPC: 2.752 (Simulation time: 02 hr 38 min 45 sec)
Heartbeat CPU 0 instructions: 370000000 cycles: 128111225 heartbeat IPC: 3.407 cumulative IPC: 2.769 (Simulation time: 02 hr 42 min 46 sec)
Heartbeat CPU 0 instructions: 380000003 cycles: 131000619 heartbeat IPC: 3.461 cumulative IPC: 2.786 (Simulation time: 02 hr 46 min 42 sec)
Heartbeat CPU 0 instructions: 390000002 cycles: 133953560 heartbeat IPC: 3.386 cumulative IPC: 2.8 (Simulation time: 02 hr 50 min 40 sec)
Heartbeat CPU 0 instructions: 400000004 cycles: 136840021 heartbeat IPC: 3.464 cumulative IPC: 2.816 (Simulation time: 02 hr 54 min 32 sec)
Heartbeat CPU 0 instructions: 410000002 cycles: 139741082 heartbeat IPC: 3.447 cumulative IPC: 2.83 (Simulation time: 02 hr 58 min 03 sec)
Heartbeat CPU 0 instructions: 420000003 cycles: 142767046 heartbeat IPC: 3.305 cumulative IPC: 2.841 (Simulation time: 03 hr 01 min 41 sec)
Heartbeat CPU 0 instructions: 430000001 cycles: 145745819 heartbeat IPC: 3.357 cumulative IPC: 2.853 (Simulation time: 03 hr 05 min 20 sec)
Heartbeat CPU 0 instructions: 440000004 cycles: 148837638 heartbeat IPC: 3.234 cumulative IPC: 2.861 (Simulation time: 03 hr 08 min 58 sec)
Heartbeat CPU 0 instructions: 450000002 cycles: 151721102 heartbeat IPC: 3.468 cumulative IPC: 2.874 (Simulation time: 03 hr 12 min 33 sec)
Heartbeat CPU 0 instructions: 460000000 cycles: 154622386 heartbeat IPC: 3.447 cumulative IPC: 2.886 (Simulation time: 03 hr 16 min 07 sec)
Heartbeat CPU 0 instructions: 470000001 cycles: 157444436 heartbeat IPC: 3.544 cumulative IPC: 2.898 (Simulation time: 03 hr 19 min 38 sec)
Heartbeat CPU 0 instructions: 480000003 cycles: 160452991 heartbeat IPC: 3.324 cumulative IPC: 2.907 (Simulation time: 03 hr 23 min 11 sec)
Heartbeat CPU 0 instructions: 490000004 cycles: 163257012 heartbeat IPC: 3.566 cumulative IPC: 2.919 (Simulation time: 03 hr 26 min 42 sec)
Heartbeat CPU 0 instructions: 500000004 cycles: 166211606 heartbeat IPC: 3.385 cumulative IPC: 2.928 (Simulation time: 03 hr 30 min 17 sec)
Heartbeat CPU 0 instructions: 510000003 cycles: 169180657 heartbeat IPC: 3.368 cumulative IPC: 2.937 (Simulation time: 03 hr 33 min 55 sec)
Heartbeat CPU 0 instructions: 520000001 cycles: 172019963 heartbeat IPC: 3.522 cumulative IPC: 2.947 (Simulation time: 03 hr 37 min 32 sec)
Heartbeat CPU 0 instructions: 530000001 cycles: 174978144 heartbeat IPC: 3.38 cumulative IPC: 2.955 (Simulation time: 03 hr 41 min 08 sec)
Heartbeat CPU 0 instructions: 540000000 cycles: 177894041 heartbeat IPC: 3.429 cumulative IPC: 2.963 (Simulation time: 03 hr 44 min 49 sec)
Heartbeat CPU 0 instructions: 550000001 cycles: 180841499 heartbeat IPC: 3.393 cumulative IPC: 2.971 (Simulation time: 03 hr 48 min 30 sec)
Heartbeat CPU 0 instructions: 560000000 cycles: 183870663 heartbeat IPC: 3.301 cumulative IPC: 2.977 (Simulation time: 03 hr 52 min 11 sec)
Heartbeat CPU 0 instructions: 570000004 cycles: 188345792 heartbeat IPC: 2.235 cumulative IPC: 2.958 (Simulation time: 03 hr 56 min 34 sec)
Heartbeat CPU 0 instructions: 580000003 cycles: 195012787 heartbeat IPC: 1.5 cumulative IPC: 2.904 (Simulation time: 04 hr 01 min 49 sec)
Heartbeat CPU 0 instructions: 590000002 cycles: 203297904 heartbeat IPC: 1.207 cumulative IPC: 2.831 (Simulation time: 04 hr 07 min 46 sec)
Heartbeat CPU 0 instructions: 600000004 cycles: 206282392 heartbeat IPC: 3.351 cumulative IPC: 2.839 (Simulation time: 04 hr 10 min 44 sec)
Heartbeat CPU 0 instructions: 610000002 cycles: 209215070 heartbeat IPC: 3.41 cumulative IPC: 2.847 (Simulation time: 04 hr 13 min 33 sec)
Heartbeat CPU 0 instructions: 620000001 cycles: 211970934 heartbeat IPC: 3.629 cumulative IPC: 2.858 (Simulation time: 04 hr 16 min 01 sec)
Heartbeat CPU 0 instructions: 630000002 cycles: 214911854 heartbeat IPC: 3.4 cumulative IPC: 2.866 (Simulation time: 04 hr 18 min 28 sec)
Heartbeat CPU 0 instructions: 640000004 cycles: 217849535 heartbeat IPC: 3.404 cumulative IPC: 2.874 (Simulation time: 04 hr 20 min 43 sec)
Heartbeat CPU 0 instructions: 650000000 cycles: 220589648 heartbeat IPC: 3.649 cumulative IPC: 2.884 (Simulation time: 04 hr 22 min 34 sec)
Simulation finished CPU 0 instructions: 600000001 cycles: 208052541 cumulative IPC: 2.884 (Simulation time: 04 hr 22 min 34 sec)
Simulation complete CPU 0 instructions: 600000001 cycles: 208052541 cumulative IPC: 2.884 (Simulation time: 04 hr 22 min 34 sec)

ChampSim completed all CPUs

=== Simulation ===
CPU 0 runs traces/400.perlbench-41B.champsimtrace.xz
Region of Interest Statistics

CPU 0 cumulative IPC: 2.884 instructions: 600000001 cycles: 208052541
CPU 0 Branch Prediction Accuracy: 99.19% MPKI: 1.684 Average ROB Occupancy at Mispredict: 101.5
Branch type MPKI
BRANCH_DIRECT_JUMP: 0.0123
BRANCH_INDIRECT: 0.323
BRANCH_CONDITIONAL: 1.14
BRANCH_DIRECT_CALL: 0.0043
BRANCH_INDIRECT_CALL: 0.2
BRANCH_RETURN: 0.00828

LLC TOTAL        ACCESS:     593262 HIT:     407105 MISS:     186157
LLC LOAD         ACCESS:     403386 HIT:     239201 MISS:     164185
LLC RFO          ACCESS:      32492 HIT:      28223 MISS:       4269
LLC PREFETCH     ACCESS:      52891 HIT:      43950 MISS:       8941
LLC WRITE        ACCESS:      85501 HIT:      85297 MISS:        204
LLC TRANSLATION  ACCESS:      18992 HIT:      10434 MISS:       8558
LLC PREFETCH REQUESTED:      52891 ISSUED:      52891 USEFUL:       3186 USELESS:       4805
LLC AVERAGE MISS LATENCY: 536.4 cycles
cpu0_DTLB TOTAL        ACCESS:  129805858 HIT:  129101419 MISS:     704439
cpu0_DTLB LOAD         ACCESS:  129805858 HIT:  129101419 MISS:     704439
cpu0_DTLB RFO          ACCESS:          0 HIT:          0 MISS:          0
cpu0_DTLB PREFETCH     ACCESS:          0 HIT:          0 MISS:          0
cpu0_DTLB WRITE        ACCESS:          0 HIT:          0 MISS:          0
cpu0_DTLB TRANSLATION  ACCESS:          0 HIT:          0 MISS:          0
cpu0_DTLB PREFETCH REQUESTED:          0 ISSUED:          0 USEFUL:          0 USELESS:          0
cpu0_DTLB AVERAGE MISS LATENCY: 12.41 cycles
cpu0_ITLB TOTAL        ACCESS:    4880246 HIT:    4818132 MISS:      62114
cpu0_ITLB LOAD         ACCESS:    4880246 HIT:    4818132 MISS:      62114
cpu0_ITLB RFO          ACCESS:          0 HIT:          0 MISS:          0
cpu0_ITLB PREFETCH     ACCESS:          0 HIT:          0 MISS:          0
cpu0_ITLB WRITE        ACCESS:          0 HIT:          0 MISS:          0
cpu0_ITLB TRANSLATION  ACCESS:          0 HIT:          0 MISS:          0
cpu0_ITLB PREFETCH REQUESTED:          0 ISSUED:          0 USEFUL:          0 USELESS:          0
cpu0_ITLB AVERAGE MISS LATENCY: 5.65 cycles
cpu0_L1D TOTAL        ACCESS:  174395384 HIT:  172639488 MISS:    1755896
cpu0_L1D LOAD         ACCESS:   91370302 HIT:   89994727 MISS:    1375575
cpu0_L1D RFO          ACCESS:          0 HIT:          0 MISS:          0
cpu0_L1D PREFETCH     ACCESS:          0 HIT:          0 MISS:          0
cpu0_L1D WRITE        ACCESS:   83000619 HIT:   82643696 MISS:     356923
cpu0_L1D TRANSLATION  ACCESS:      24463 HIT:       1065 MISS:      23398
cpu0_L1D PREFETCH REQUESTED:          0 ISSUED:          0 USEFUL:          0 USELESS:          0
cpu0_L1D AVERAGE MISS LATENCY: 58.62 cycles
cpu0_L1I TOTAL        ACCESS:    5659218 HIT:    4853989 MISS:     805229
cpu0_L1I LOAD         ACCESS:    5659218 HIT:    4853989 MISS:     805229
cpu0_L1I RFO          ACCESS:          0 HIT:          0 MISS:          0
cpu0_L1I PREFETCH     ACCESS:          0 HIT:          0 MISS:          0
cpu0_L1I WRITE        ACCESS:          0 HIT:          0 MISS:          0
cpu0_L1I TRANSLATION  ACCESS:          0 HIT:          0 MISS:          0
cpu0_L1I PREFETCH REQUESTED:          0 ISSUED:          0 USEFUL:          0 USELESS:          0
cpu0_L1I AVERAGE MISS LATENCY: 8.979 cycles
cpu0_L2C TOTAL        ACCESS:    1668516 HIT:    1211827 MISS:     456689
cpu0_L2C LOAD         ACCESS:    1315340 HIT:     911954 MISS:     403386
cpu0_L2C RFO          ACCESS:      89590 HIT:      57097 MISS:      32493
cpu0_L2C PREFETCH     ACCESS:          0 HIT:          0 MISS:          0
cpu0_L2C WRITE        ACCESS:     240264 HIT:     238446 MISS:       1818
cpu0_L2C TRANSLATION  ACCESS:      23322 HIT:       4330 MISS:      18992
cpu0_L2C PREFETCH REQUESTED:          0 ISSUED:          0 USEFUL:          0 USELESS:          0
cpu0_L2C AVERAGE MISS LATENCY: 226.7 cycles
cpu0_STLB TOTAL        ACCESS:     509147 HIT:     486360 MISS:      22787
cpu0_STLB LOAD         ACCESS:     509147 HIT:     486360 MISS:      22787
cpu0_STLB RFO          ACCESS:          0 HIT:          0 MISS:          0
cpu0_STLB PREFETCH     ACCESS:          0 HIT:          0 MISS:          0
cpu0_STLB WRITE        ACCESS:          0 HIT:          0 MISS:          0
cpu0_STLB TRANSLATION  ACCESS:          0 HIT:          0 MISS:          0
cpu0_STLB PREFETCH REQUESTED:          0 ISSUED:          0 USEFUL:          0 USELESS:          0
cpu0_STLB AVERAGE MISS LATENCY: 266.5 cycles

DRAM Statistics

Channel 0 RQ ROW_BUFFER_HIT:      57522
  ROW_BUFFER_MISS:     126998
 AVG DBUS CONGESTED CYCLE: 3.743
WQ ROW_BUFFER_HIT: Channel 0 
  ROW_BUFFER_MISS:        238
  FULL:        204
