WARNING: physical memory size is smaller than virtual memory size.

*** ChampSim Multicore Out-of-Order Simulator ***
Warmup Instructions: 50000000
Simulation Instructions: 600000000
Number of CPUs: 1
Page size: 4096

CPU 0 Tage branch predictor
Off-chip DRAM Size: 4 GiB Channels: 1 Width: 64-bit Data Race: 3200 MT/s
Heartbeat CPU 0 instructions: 10000000 cycles: 2500061 heartbeat IPC: 4 cumulative IPC: 4 (Simulation time: 00 hr 01 min 05 sec)
Heartbeat CPU 0 instructions: 20000000 cycles: 5000061 heartbeat IPC: 4 cumulative IPC: 4 (Simulation time: 00 hr 02 min 19 sec)
Heartbeat CPU 0 instructions: 30000000 cycles: 7500061 heartbeat IPC: 4 cumulative IPC: 4 (Simulation time: 00 hr 03 min 39 sec)
Heartbeat CPU 0 instructions: 40000000 cycles: 10000061 heartbeat IPC: 4 cumulative IPC: 4 (Simulation time: 00 hr 05 min 05 sec)
Heartbeat CPU 0 instructions: 50000000 cycles: 12500061 heartbeat IPC: 4 cumulative IPC: 4 (Simulation time: 00 hr 06 min 31 sec)
Warmup finished CPU 0 instructions: 50000000 cycles: 12500062 cumulative IPC: 4 (Simulation time: 00 hr 06 min 31 sec)
Warmup complete CPU 0 instructions: 50000000 cycles: 12500062 cumulative IPC: 4 (Simulation time: 00 hr 06 min 31 sec)
Heartbeat CPU 0 instructions: 60000004 cycles: 15504489 heartbeat IPC: 3.328 cumulative IPC: 3.328 (Simulation time: 00 hr 08 min 07 sec)
Heartbeat CPU 0 instructions: 70000003 cycles: 18370762 heartbeat IPC: 3.489 cumulative IPC: 3.407 (Simulation time: 00 hr 09 min 36 sec)
Heartbeat CPU 0 instructions: 80000002 cycles: 21382300 heartbeat IPC: 3.321 cumulative IPC: 3.378 (Simulation time: 00 hr 11 min 06 sec)
Heartbeat CPU 0 instructions: 90000000 cycles: 24100329 heartbeat IPC: 3.679 cumulative IPC: 3.448 (Simulation time: 00 hr 12 min 37 sec)
Heartbeat CPU 0 instructions: 100000003 cycles: 26857493 heartbeat IPC: 3.627 cumulative IPC: 3.483 (Simulation time: 00 hr 14 min 08 sec)
Heartbeat CPU 0 instructions: 110000001 cycles: 29755202 heartbeat IPC: 3.451 cumulative IPC: 3.477 (Simulation time: 00 hr 15 min 50 sec)
Heartbeat CPU 0 instructions: 120000001 cycles: 32471687 heartbeat IPC: 3.681 cumulative IPC: 3.505 (Simulation time: 00 hr 17 min 31 sec)
Heartbeat CPU 0 instructions: 130000003 cycles: 35371153 heartbeat IPC: 3.449 cumulative IPC: 3.498 (Simulation time: 00 hr 19 min 14 sec)
Heartbeat CPU 0 instructions: 140000002 cycles: 38204957 heartbeat IPC: 3.529 cumulative IPC: 3.501 (Simulation time: 00 hr 20 min 57 sec)
Heartbeat CPU 0 instructions: 150000001 cycles: 40975005 heartbeat IPC: 3.61 cumulative IPC: 3.512 (Simulation time: 00 hr 22 min 44 sec)
Heartbeat CPU 0 instructions: 160000000 cycles: 43892634 heartbeat IPC: 3.427 cumulative IPC: 3.504 (Simulation time: 00 hr 24 min 20 sec)
Heartbeat CPU 0 instructions: 170000001 cycles: 46821114 heartbeat IPC: 3.415 cumulative IPC: 3.496 (Simulation time: 00 hr 25 min 53 sec)
Heartbeat CPU 0 instructions: 180000000 cycles: 49612148 heartbeat IPC: 3.583 cumulative IPC: 3.503 (Simulation time: 00 hr 27 min 41 sec)
Heartbeat CPU 0 instructions: 190000002 cycles: 52319155 heartbeat IPC: 3.694 cumulative IPC: 3.516 (Simulation time: 00 hr 28 min 31 sec)
Heartbeat CPU 0 instructions: 200000002 cycles: 55139904 heartbeat IPC: 3.545 cumulative IPC: 3.518 (Simulation time: 00 hr 29 min 16 sec)
Heartbeat CPU 0 instructions: 210000000 cycles: 58032602 heartbeat IPC: 3.457 cumulative IPC: 3.514 (Simulation time: 00 hr 30 min 00 sec)
Heartbeat CPU 0 instructions: 220000001 cycles: 60784611 heartbeat IPC: 3.634 cumulative IPC: 3.521 (Simulation time: 00 hr 30 min 44 sec)
Heartbeat CPU 0 instructions: 230000002 cycles: 63673784 heartbeat IPC: 3.461 cumulative IPC: 3.517 (Simulation time: 00 hr 31 min 29 sec)
Heartbeat CPU 0 instructions: 240000004 cycles: 66624801 heartbeat IPC: 3.389 cumulative IPC: 3.51 (Simulation time: 00 hr 32 min 13 sec)
Heartbeat CPU 0 instructions: 250000003 cycles: 69515661 heartbeat IPC: 3.459 cumulative IPC: 3.508 (Simulation time: 00 hr 32 min 58 sec)
Heartbeat CPU 0 instructions: 260000001 cycles: 72300103 heartbeat IPC: 3.591 cumulative IPC: 3.512 (Simulation time: 00 hr 33 min 43 sec)
Heartbeat CPU 0 instructions: 270000002 cycles: 78059363 heartbeat IPC: 1.736 cumulative IPC: 3.356 (Simulation time: 00 hr 34 min 45 sec)
Heartbeat CPU 0 instructions: 280000000 cycles: 86488783 heartbeat IPC: 1.186 cumulative IPC: 3.109 (Simulation time: 00 hr 36 min 12 sec)
Heartbeat CPU 0 instructions: 290000000 cycles: 93387208 heartbeat IPC: 1.45 cumulative IPC: 2.967 (Simulation time: 00 hr 37 min 24 sec)
Heartbeat CPU 0 instructions: 300000003 cycles: 98381271 heartbeat IPC: 2.002 cumulative IPC: 2.911 (Simulation time: 00 hr 38 min 28 sec)
Heartbeat CPU 0 instructions: 310000001 cycles: 105671939 heartbeat IPC: 1.372 cumulative IPC: 2.791 (Simulation time: 00 hr 39 min 45 sec)
Heartbeat CPU 0 instructions: 320000004 cycles: 109317610 heartbeat IPC: 2.743 cumulative IPC: 2.789 (Simulation time: 00 hr 40 min 40 sec)
Heartbeat CPU 0 instructions: 330000000 cycles: 112418075 heartbeat IPC: 3.225 cumulative IPC: 2.802 (Simulation time: 00 hr 41 min 30 sec)
Heartbeat CPU 0 instructions: 340000001 cycles: 115218652 heartbeat IPC: 3.571 cumulative IPC: 2.823 (Simulation time: 00 hr 42 min 15 sec)
Heartbeat CPU 0 instructions: 350000000 cycles: 118159500 heartbeat IPC: 3.4 cumulative IPC: 2.839 (Simulation time: 00 hr 43 min 02 sec)
Heartbeat CPU 0 instructions: 360000004 cycles: 120915591 heartbeat IPC: 3.628 cumulative IPC: 2.859 (Simulation time: 00 hr 43 min 48 sec)
Heartbeat CPU 0 instructions: 370000001 cycles: 123682886 heartbeat IPC: 3.614 cumulative IPC: 2.878 (Simulation time: 00 hr 44 min 34 sec)
Heartbeat CPU 0 instructions: 380000004 cycles: 126482919 heartbeat IPC: 3.571 cumulative IPC: 2.895 (Simulation time: 00 hr 45 min 20 sec)
Heartbeat CPU 0 instructions: 390000002 cycles: 129287732 heartbeat IPC: 3.565 cumulative IPC: 2.911 (Simulation time: 00 hr 46 min 05 sec)
Heartbeat CPU 0 instructions: 400000000 cycles: 132148479 heartbeat IPC: 3.496 cumulative IPC: 2.925 (Simulation time: 00 hr 46 min 52 sec)
Heartbeat CPU 0 instructions: 410000000 cycles: 136249506 heartbeat IPC: 2.438 cumulative IPC: 2.909 (Simulation time: 00 hr 47 min 48 sec)
Heartbeat CPU 0 instructions: 420000003 cycles: 141120948 heartbeat IPC: 2.053 cumulative IPC: 2.877 (Simulation time: 00 hr 48 min 49 sec)
Heartbeat CPU 0 instructions: 430000000 cycles: 145491933 heartbeat IPC: 2.288 cumulative IPC: 2.857 (Simulation time: 00 hr 49 min 49 sec)
Heartbeat CPU 0 instructions: 440000004 cycles: 149693502 heartbeat IPC: 2.38 cumulative IPC: 2.843 (Simulation time: 00 hr 50 min 49 sec)
Heartbeat CPU 0 instructions: 450000001 cycles: 153907779 heartbeat IPC: 2.373 cumulative IPC: 2.829 (Simulation time: 00 hr 51 min 48 sec)
Heartbeat CPU 0 instructions: 460000002 cycles: 158970487 heartbeat IPC: 1.975 cumulative IPC: 2.799 (Simulation time: 00 hr 52 min 53 sec)
Heartbeat CPU 0 instructions: 470000003 cycles: 163077613 heartbeat IPC: 2.435 cumulative IPC: 2.789 (Simulation time: 00 hr 53 min 53 sec)
Heartbeat CPU 0 instructions: 480000000 cycles: 166032858 heartbeat IPC: 3.384 cumulative IPC: 2.801 (Simulation time: 00 hr 54 min 42 sec)
Heartbeat CPU 0 instructions: 490000001 cycles: 169005802 heartbeat IPC: 3.364 cumulative IPC: 2.811 (Simulation time: 00 hr 55 min 33 sec)
Heartbeat CPU 0 instructions: 500000002 cycles: 171871074 heartbeat IPC: 3.49 cumulative IPC: 2.824 (Simulation time: 00 hr 56 min 22 sec)
Heartbeat CPU 0 instructions: 510000000 cycles: 174722537 heartbeat IPC: 3.507 cumulative IPC: 2.836 (Simulation time: 00 hr 57 min 12 sec)
Heartbeat CPU 0 instructions: 520000000 cycles: 177568089 heartbeat IPC: 3.514 cumulative IPC: 2.847 (Simulation time: 00 hr 58 min 00 sec)
Heartbeat CPU 0 instructions: 530000001 cycles: 182266837 heartbeat IPC: 2.128 cumulative IPC: 2.827 (Simulation time: 00 hr 59 min 01 sec)
Heartbeat CPU 0 instructions: 540000000 cycles: 186898405 heartbeat IPC: 2.159 cumulative IPC: 2.81 (Simulation time: 01 hr 00 min 04 sec)
Heartbeat CPU 0 instructions: 550000004 cycles: 191795594 heartbeat IPC: 2.042 cumulative IPC: 2.789 (Simulation time: 01 hr 01 min 07 sec)
Heartbeat CPU 0 instructions: 560000004 cycles: 194936615 heartbeat IPC: 3.184 cumulative IPC: 2.795 (Simulation time: 01 hr 01 min 56 sec)
Heartbeat CPU 0 instructions: 570000002 cycles: 197711888 heartbeat IPC: 3.603 cumulative IPC: 2.808 (Simulation time: 01 hr 02 min 44 sec)
Heartbeat CPU 0 instructions: 580000000 cycles: 200543967 heartbeat IPC: 3.531 cumulative IPC: 2.818 (Simulation time: 01 hr 03 min 31 sec)
Heartbeat CPU 0 instructions: 590000001 cycles: 203390239 heartbeat IPC: 3.513 cumulative IPC: 2.829 (Simulation time: 01 hr 04 min 17 sec)
Heartbeat CPU 0 instructions: 600000003 cycles: 206041815 heartbeat IPC: 3.771 cumulative IPC: 2.842 (Simulation time: 01 hr 05 min 05 sec)
Heartbeat CPU 0 instructions: 610000001 cycles: 208853002 heartbeat IPC: 3.557 cumulative IPC: 2.852 (Simulation time: 01 hr 05 min 56 sec)
Heartbeat CPU 0 instructions: 620000004 cycles: 211763758 heartbeat IPC: 3.436 cumulative IPC: 2.861 (Simulation time: 01 hr 06 min 46 sec)
Heartbeat CPU 0 instructions: 630000002 cycles: 214540807 heartbeat IPC: 3.601 cumulative IPC: 2.871 (Simulation time: 01 hr 07 min 34 sec)
Heartbeat CPU 0 instructions: 640000004 cycles: 217556123 heartbeat IPC: 3.316 cumulative IPC: 2.877 (Simulation time: 01 hr 08 min 25 sec)
Heartbeat CPU 0 instructions: 650000001 cycles: 220252245 heartbeat IPC: 3.709 cumulative IPC: 2.888 (Simulation time: 01 hr 09 min 12 sec)
Simulation finished CPU 0 instructions: 600000001 cycles: 207752184 cumulative IPC: 2.888 (Simulation time: 01 hr 09 min 12 sec)
Simulation complete CPU 0 instructions: 600000001 cycles: 207752184 cumulative IPC: 2.888 (Simulation time: 01 hr 09 min 12 sec)

ChampSim completed all CPUs

=== Simulation ===
CPU 0 runs traces/400.perlbench-50B.champsimtrace.xz
Region of Interest Statistics

CPU 0 cumulative IPC: 2.888 instructions: 600000001 cycles: 207752184
CPU 0 Branch Prediction Accuracy: 99.01% MPKI: 2.04 Average ROB Occupancy at Mispredict: 93.23
Branch type MPKI
BRANCH_DIRECT_JUMP: 0.0176
BRANCH_INDIRECT: 0.38
BRANCH_CONDITIONAL: 1.19
BRANCH_DIRECT_CALL: 0.0067
BRANCH_INDIRECT_CALL: 0.431
BRANCH_RETURN: 0.0161

LLC TOTAL        ACCESS:     771468 HIT:     657946 MISS:     113522
LLC LOAD         ACCESS:     575619 HIT:     480975 MISS:      94644
LLC RFO          ACCESS:      46995 HIT:      37457 MISS:       9538
LLC PREFETCH     ACCESS:          0 HIT:          0 MISS:          0
LLC WRITE        ACCESS:     126667 HIT:     126477 MISS:        190
LLC TRANSLATION  ACCESS:      22187 HIT:      13037 MISS:       9150
LLC PREFETCH REQUESTED:          0 ISSUED:          0 USEFUL:          0 USELESS:          0
LLC AVERAGE MISS LATENCY: 521.4 cycles
cpu0_DTLB TOTAL        ACCESS:  133216882 HIT:  131863037 MISS:    1353845
cpu0_DTLB LOAD         ACCESS:  133216882 HIT:  131863037 MISS:    1353845
cpu0_DTLB RFO          ACCESS:          0 HIT:          0 MISS:          0
cpu0_DTLB PREFETCH     ACCESS:          0 HIT:          0 MISS:          0
cpu0_DTLB WRITE        ACCESS:          0 HIT:          0 MISS:          0
cpu0_DTLB TRANSLATION  ACCESS:          0 HIT:          0 MISS:          0
cpu0_DTLB PREFETCH REQUESTED:          0 ISSUED:          0 USEFUL:          0 USELESS:          0
cpu0_DTLB AVERAGE MISS LATENCY: 9.419 cycles
cpu0_ITLB TOTAL        ACCESS:    8984314 HIT:    8774903 MISS:     209411
cpu0_ITLB LOAD         ACCESS:    8984314 HIT:    8774903 MISS:     209411
cpu0_ITLB RFO          ACCESS:          0 HIT:          0 MISS:          0
cpu0_ITLB PREFETCH     ACCESS:          0 HIT:          0 MISS:          0
cpu0_ITLB WRITE        ACCESS:          0 HIT:          0 MISS:          0
cpu0_ITLB TRANSLATION  ACCESS:          0 HIT:          0 MISS:          0
cpu0_ITLB PREFETCH REQUESTED:          0 ISSUED:          0 USEFUL:          0 USELESS:          0
cpu0_ITLB AVERAGE MISS LATENCY: 2.325 cycles
cpu0_L1D TOTAL        ACCESS:  178285654 HIT:  174545494 MISS:    3740160
cpu0_L1D LOAD         ACCESS:   92767218 HIT:   89694085 MISS:    3073133
cpu0_L1D RFO          ACCESS:          0 HIT:          0 MISS:          0
cpu0_L1D PREFETCH     ACCESS:          0 HIT:          0 MISS:          0
cpu0_L1D WRITE        ACCESS:   85489909 HIT:   84849988 MISS:     639921
cpu0_L1D TRANSLATION  ACCESS:      28527 HIT:       1421 MISS:      27106
cpu0_L1D PREFETCH REQUESTED:          0 ISSUED:          0 USEFUL:          0 USELESS:          0
cpu0_L1D AVERAGE MISS LATENCY: 21.55 cycles
cpu0_L1I TOTAL        ACCESS:   10504644 HIT:    8605921 MISS:    1898723
cpu0_L1I LOAD         ACCESS:   10504644 HIT:    8605921 MISS:    1898723
cpu0_L1I RFO          ACCESS:          0 HIT:          0 MISS:          0
cpu0_L1I PREFETCH     ACCESS:          0 HIT:          0 MISS:          0
cpu0_L1I WRITE        ACCESS:          0 HIT:          0 MISS:          0
cpu0_L1I TRANSLATION  ACCESS:          0 HIT:          0 MISS:          0
cpu0_L1I PREFETCH REQUESTED:          0 ISSUED:          0 USEFUL:          0 USELESS:          0
cpu0_L1I AVERAGE MISS LATENCY: 8.487 cycles
cpu0_L2C TOTAL        ACCESS:    3840661 HIT:    3192737 MISS:     647924
cpu0_L2C LOAD         ACCESS:    3103884 HIT:    2528265 MISS:     575619
cpu0_L2C RFO          ACCESS:     194828 HIT:     147833 MISS:      46995
cpu0_L2C PREFETCH     ACCESS:          0 HIT:          0 MISS:          0
cpu0_L2C WRITE        ACCESS:     514916 HIT:     511793 MISS:       3123
cpu0_L2C TRANSLATION  ACCESS:      27033 HIT:       4846 MISS:      22187
cpu0_L2C PREFETCH REQUESTED:          0 ISSUED:          0 USEFUL:          0 USELESS:          0
cpu0_L2C AVERAGE MISS LATENCY: 111.4 cycles
cpu0_STLB TOTAL        ACCESS:    1009616 HIT:     982927 MISS:      26689
cpu0_STLB LOAD         ACCESS:    1009616 HIT:     982927 MISS:      26689
cpu0_STLB RFO          ACCESS:          0 HIT:          0 MISS:          0
cpu0_STLB PREFETCH     ACCESS:          0 HIT:          0 MISS:          0
cpu0_STLB WRITE        ACCESS:          0 HIT:          0 MISS:          0
cpu0_STLB TRANSLATION  ACCESS:          0 HIT:          0 MISS:          0
cpu0_STLB PREFETCH REQUESTED:          0 ISSUED:          0 USEFUL:          0 USELESS:          0
cpu0_STLB AVERAGE MISS LATENCY: 262.6 cycles

DRAM Statistics

Channel 0 RQ ROW_BUFFER_HIT:      34263
  ROW_BUFFER_MISS:      79067
 AVG DBUS CONGESTED CYCLE: 3.754
WQ ROW_BUFFER_HIT: Channel 0 
  ROW_BUFFER_MISS:        787
  FULL:       1836
