WARNING: physical memory size is smaller than virtual memory size.

*** ChampSim Multicore Out-of-Order Simulator ***
Warmup Instructions: 50000000
Simulation Instructions: 600000000
Number of CPUs: 1
Page size: 4096

Off-chip DRAM Size: 4 GiB Channels: 1 Width: 64-bit Data Race: 3200 MT/s
Heartbeat CPU 0 instructions: 10000001 cycles: 2500318 heartbeat IPC: 3.999 cumulative IPC: 3.999 (Simulation time: 00 hr 01 min 14 sec)
Heartbeat CPU 0 instructions: 20000002 cycles: 5037110 heartbeat IPC: 3.942 cumulative IPC: 3.971 (Simulation time: 00 hr 02 min 33 sec)
Heartbeat CPU 0 instructions: 30000002 cycles: 7537110 heartbeat IPC: 4 cumulative IPC: 3.98 (Simulation time: 00 hr 03 min 44 sec)
Heartbeat CPU 0 instructions: 40000002 cycles: 10037110 heartbeat IPC: 4 cumulative IPC: 3.985 (Simulation time: 00 hr 04 min 53 sec)
Heartbeat CPU 0 instructions: 50000002 cycles: 12537110 heartbeat IPC: 4 cumulative IPC: 3.988 (Simulation time: 00 hr 06 min 02 sec)
Warmup finished CPU 0 instructions: 50000002 cycles: 12537111 cumulative IPC: 3.988 (Simulation time: 00 hr 06 min 02 sec)
Warmup complete CPU 0 instructions: 50000002 cycles: 12537111 cumulative IPC: 3.988 (Simulation time: 00 hr 06 min 02 sec)
Heartbeat CPU 0 instructions: 60000000 cycles: 17678454 heartbeat IPC: 1.945 cumulative IPC: 1.945 (Simulation time: 00 hr 07 min 49 sec)
Heartbeat CPU 0 instructions: 70000002 cycles: 22551878 heartbeat IPC: 2.052 cumulative IPC: 1.997 (Simulation time: 00 hr 09 min 37 sec)
Heartbeat CPU 0 instructions: 80000001 cycles: 27893077 heartbeat IPC: 1.872 cumulative IPC: 1.954 (Simulation time: 00 hr 11 min 32 sec)
Heartbeat CPU 0 instructions: 90000001 cycles: 32754678 heartbeat IPC: 2.057 cumulative IPC: 1.978 (Simulation time: 00 hr 13 min 21 sec)
Heartbeat CPU 0 instructions: 100000000 cycles: 37848166 heartbeat IPC: 1.963 cumulative IPC: 1.975 (Simulation time: 00 hr 15 min 01 sec)
Heartbeat CPU 0 instructions: 110000000 cycles: 42717387 heartbeat IPC: 2.054 cumulative IPC: 1.988 (Simulation time: 00 hr 16 min 34 sec)
Heartbeat CPU 0 instructions: 120000001 cycles: 47888762 heartbeat IPC: 1.934 cumulative IPC: 1.98 (Simulation time: 00 hr 18 min 09 sec)
Heartbeat CPU 0 instructions: 130000001 cycles: 53019336 heartbeat IPC: 1.949 cumulative IPC: 1.976 (Simulation time: 00 hr 19 min 48 sec)
Heartbeat CPU 0 instructions: 140000001 cycles: 58296230 heartbeat IPC: 1.895 cumulative IPC: 1.967 (Simulation time: 00 hr 21 min 31 sec)
Heartbeat CPU 0 instructions: 150000001 cycles: 63587624 heartbeat IPC: 1.89 cumulative IPC: 1.959 (Simulation time: 00 hr 23 min 25 sec)
Heartbeat CPU 0 instructions: 160000004 cycles: 68751406 heartbeat IPC: 1.937 cumulative IPC: 1.957 (Simulation time: 00 hr 25 min 12 sec)
Heartbeat CPU 0 instructions: 170000000 cycles: 76478466 heartbeat IPC: 1.294 cumulative IPC: 1.877 (Simulation time: 00 hr 26 min 26 sec)
Heartbeat CPU 0 instructions: 180000004 cycles: 83084514 heartbeat IPC: 1.514 cumulative IPC: 1.843 (Simulation time: 00 hr 27 min 31 sec)
Heartbeat CPU 0 instructions: 190000001 cycles: 89390874 heartbeat IPC: 1.586 cumulative IPC: 1.822 (Simulation time: 00 hr 28 min 30 sec)
Heartbeat CPU 0 instructions: 200000003 cycles: 93876064 heartbeat IPC: 2.23 cumulative IPC: 1.844 (Simulation time: 00 hr 29 min 19 sec)
Heartbeat CPU 0 instructions: 210000001 cycles: 98580607 heartbeat IPC: 2.126 cumulative IPC: 1.86 (Simulation time: 00 hr 30 min 07 sec)
Heartbeat CPU 0 instructions: 220000000 cycles: 103279437 heartbeat IPC: 2.128 cumulative IPC: 1.873 (Simulation time: 00 hr 30 min 54 sec)
Heartbeat CPU 0 instructions: 230000002 cycles: 108151110 heartbeat IPC: 2.053 cumulative IPC: 1.883 (Simulation time: 00 hr 31 min 40 sec)
Heartbeat CPU 0 instructions: 240000000 cycles: 112722996 heartbeat IPC: 2.187 cumulative IPC: 1.896 (Simulation time: 00 hr 32 min 27 sec)
Heartbeat CPU 0 instructions: 250000000 cycles: 117547894 heartbeat IPC: 2.073 cumulative IPC: 1.905 (Simulation time: 00 hr 33 min 17 sec)
Heartbeat CPU 0 instructions: 260000000 cycles: 122242986 heartbeat IPC: 2.13 cumulative IPC: 1.914 (Simulation time: 00 hr 34 min 05 sec)
Heartbeat CPU 0 instructions: 270000002 cycles: 126903373 heartbeat IPC: 2.146 cumulative IPC: 1.924 (Simulation time: 00 hr 34 min 53 sec)
Heartbeat CPU 0 instructions: 280000002 cycles: 131561761 heartbeat IPC: 2.147 cumulative IPC: 1.932 (Simulation time: 00 hr 35 min 39 sec)
Heartbeat CPU 0 instructions: 290000001 cycles: 136725410 heartbeat IPC: 1.937 cumulative IPC: 1.933 (Simulation time: 00 hr 36 min 27 sec)
Heartbeat CPU 0 instructions: 300000003 cycles: 141466614 heartbeat IPC: 2.109 cumulative IPC: 1.939 (Simulation time: 00 hr 37 min 14 sec)
Heartbeat CPU 0 instructions: 310000001 cycles: 146399323 heartbeat IPC: 2.027 cumulative IPC: 1.942 (Simulation time: 00 hr 38 min 00 sec)
Heartbeat CPU 0 instructions: 320000003 cycles: 151338433 heartbeat IPC: 2.025 cumulative IPC: 1.945 (Simulation time: 00 hr 38 min 48 sec)
Heartbeat CPU 0 instructions: 330000003 cycles: 156244098 heartbeat IPC: 2.038 cumulative IPC: 1.948 (Simulation time: 00 hr 39 min 34 sec)
Heartbeat CPU 0 instructions: 340000000 cycles: 162589705 heartbeat IPC: 1.576 cumulative IPC: 1.933 (Simulation time: 00 hr 40 min 33 sec)
Heartbeat CPU 0 instructions: 350000000 cycles: 169362173 heartbeat IPC: 1.477 cumulative IPC: 1.913 (Simulation time: 00 hr 41 min 37 sec)
Heartbeat CPU 0 instructions: 360000004 cycles: 175943302 heartbeat IPC: 1.519 cumulative IPC: 1.897 (Simulation time: 00 hr 42 min 39 sec)
Heartbeat CPU 0 instructions: 370000000 cycles: 180155348 heartbeat IPC: 2.374 cumulative IPC: 1.909 (Simulation time: 00 hr 43 min 25 sec)
Heartbeat CPU 0 instructions: 380000001 cycles: 184879137 heartbeat IPC: 2.117 cumulative IPC: 1.915 (Simulation time: 00 hr 44 min 16 sec)
Heartbeat CPU 0 instructions: 390000002 cycles: 189567488 heartbeat IPC: 2.133 cumulative IPC: 1.921 (Simulation time: 00 hr 45 min 07 sec)
Heartbeat CPU 0 instructions: 400000004 cycles: 194416951 heartbeat IPC: 2.062 cumulative IPC: 1.924 (Simulation time: 00 hr 45 min 58 sec)
Heartbeat CPU 0 instructions: 410000000 cycles: 198913271 heartbeat IPC: 2.224 cumulative IPC: 1.932 (Simulation time: 00 hr 46 min 46 sec)
Heartbeat CPU 0 instructions: 420000000 cycles: 203704016 heartbeat IPC: 2.087 cumulative IPC: 1.935 (Simulation time: 00 hr 47 min 35 sec)
Heartbeat CPU 0 instructions: 430000001 cycles: 207998845 heartbeat IPC: 2.328 cumulative IPC: 1.944 (Simulation time: 00 hr 48 min 24 sec)
Heartbeat CPU 0 instructions: 440000000 cycles: 213089238 heartbeat IPC: 1.964 cumulative IPC: 1.945 (Simulation time: 00 hr 49 min 15 sec)
Heartbeat CPU 0 instructions: 450000002 cycles: 217525684 heartbeat IPC: 2.254 cumulative IPC: 1.951 (Simulation time: 00 hr 50 min 03 sec)
Heartbeat CPU 0 instructions: 460000000 cycles: 222113337 heartbeat IPC: 2.18 cumulative IPC: 1.956 (Simulation time: 00 hr 50 min 50 sec)
Heartbeat CPU 0 instructions: 470000000 cycles: 226909087 heartbeat IPC: 2.085 cumulative IPC: 1.959 (Simulation time: 00 hr 51 min 39 sec)
Heartbeat CPU 0 instructions: 480000003 cycles: 231481835 heartbeat IPC: 2.187 cumulative IPC: 1.964 (Simulation time: 00 hr 52 min 27 sec)
Heartbeat CPU 0 instructions: 490000000 cycles: 235952430 heartbeat IPC: 2.237 cumulative IPC: 1.969 (Simulation time: 00 hr 53 min 16 sec)
Heartbeat CPU 0 instructions: 500000000 cycles: 240837306 heartbeat IPC: 2.047 cumulative IPC: 1.971 (Simulation time: 00 hr 54 min 05 sec)
Heartbeat CPU 0 instructions: 510000003 cycles: 246230457 heartbeat IPC: 1.854 cumulative IPC: 1.968 (Simulation time: 00 hr 54 min 57 sec)
Heartbeat CPU 0 instructions: 520000001 cycles: 250673009 heartbeat IPC: 2.251 cumulative IPC: 1.974 (Simulation time: 00 hr 55 min 44 sec)
Heartbeat CPU 0 instructions: 530000002 cycles: 255612072 heartbeat IPC: 2.025 cumulative IPC: 1.975 (Simulation time: 00 hr 56 min 32 sec)
Heartbeat CPU 0 instructions: 540000000 cycles: 260523947 heartbeat IPC: 2.036 cumulative IPC: 1.976 (Simulation time: 00 hr 57 min 20 sec)
Heartbeat CPU 0 instructions: 550000001 cycles: 265164872 heartbeat IPC: 2.155 cumulative IPC: 1.979 (Simulation time: 00 hr 58 min 07 sec)
Heartbeat CPU 0 instructions: 560000000 cycles: 270073397 heartbeat IPC: 2.037 cumulative IPC: 1.98 (Simulation time: 00 hr 58 min 56 sec)
Heartbeat CPU 0 instructions: 570000004 cycles: 275447181 heartbeat IPC: 1.861 cumulative IPC: 1.978 (Simulation time: 00 hr 59 min 49 sec)
Heartbeat CPU 0 instructions: 580000003 cycles: 282391834 heartbeat IPC: 1.44 cumulative IPC: 1.964 (Simulation time: 01 hr 00 min 55 sec)
Heartbeat CPU 0 instructions: 590000002 cycles: 289724564 heartbeat IPC: 1.364 cumulative IPC: 1.948 (Simulation time: 01 hr 02 min 06 sec)
Heartbeat CPU 0 instructions: 600000000 cycles: 294070607 heartbeat IPC: 2.301 cumulative IPC: 1.954 (Simulation time: 01 hr 02 min 52 sec)
Heartbeat CPU 0 instructions: 610000002 cycles: 298384306 heartbeat IPC: 2.318 cumulative IPC: 1.959 (Simulation time: 01 hr 03 min 42 sec)
Heartbeat CPU 0 instructions: 620000000 cycles: 303086142 heartbeat IPC: 2.127 cumulative IPC: 1.962 (Simulation time: 01 hr 04 min 35 sec)
Heartbeat CPU 0 instructions: 630000002 cycles: 308009151 heartbeat IPC: 2.031 cumulative IPC: 1.963 (Simulation time: 01 hr 05 min 26 sec)
Heartbeat CPU 0 instructions: 640000001 cycles: 312794615 heartbeat IPC: 2.09 cumulative IPC: 1.965 (Simulation time: 01 hr 06 min 20 sec)
Heartbeat CPU 0 instructions: 650000000 cycles: 317288497 heartbeat IPC: 2.225 cumulative IPC: 1.969 (Simulation time: 01 hr 07 min 08 sec)
Simulation finished CPU 0 instructions: 600000001 cycles: 304751388 cumulative IPC: 1.969 (Simulation time: 01 hr 07 min 08 sec)
Simulation complete CPU 0 instructions: 600000001 cycles: 304751388 cumulative IPC: 1.969 (Simulation time: 01 hr 07 min 08 sec)

ChampSim completed all CPUs

=== Simulation ===
CPU 0 runs traces/400.perlbench-41B.champsimtrace.xz
Region of Interest Statistics

CPU 0 cumulative IPC: 1.969 instructions: 600000001 cycles: 304751388
CPU 0 Branch Prediction Accuracy: 93.95% MPKI: 12.5 Average ROB Occupancy at Mispredict: 29.28
Branch type MPKI
BRANCH_DIRECT_JUMP: 0.0123
BRANCH_INDIRECT: 0.323
BRANCH_CONDITIONAL: 12
BRANCH_DIRECT_CALL: 0.0043
BRANCH_INDIRECT_CALL: 0.2
BRANCH_RETURN: 0.00828

LLC TOTAL        ACCESS:     595619 HIT:     540607 MISS:      55012
LLC LOAD         ACCESS:     403721 HIT:     365127 MISS:      38594
LLC RFO          ACCESS:      32581 HIT:      28198 MISS:       4383
LLC PREFETCH     ACCESS:      54308 HIT:      48933 MISS:       5375
LLC WRITE        ACCESS:      85804 HIT:      85793 MISS:         11
LLC TRANSLATION  ACCESS:      19205 HIT:      12556 MISS:       6649
LLC PREFETCH REQUESTED:      54308 ISSUED:      54308 USEFUL:       3360 USELESS:        390
LLC AVERAGE MISS LATENCY: 485.8 cycles
cpu0_DTLB TOTAL        ACCESS:  153696499 HIT:  153019916 MISS:     676583
cpu0_DTLB LOAD         ACCESS:  153696499 HIT:  153019916 MISS:     676583
cpu0_DTLB RFO          ACCESS:          0 HIT:          0 MISS:          0
cpu0_DTLB PREFETCH     ACCESS:          0 HIT:          0 MISS:          0
cpu0_DTLB WRITE        ACCESS:          0 HIT:          0 MISS:          0
cpu0_DTLB TRANSLATION  ACCESS:          0 HIT:          0 MISS:          0
cpu0_DTLB PREFETCH REQUESTED:          0 ISSUED:          0 USEFUL:          0 USELESS:          0
cpu0_DTLB AVERAGE MISS LATENCY: 10.78 cycles
cpu0_ITLB TOTAL        ACCESS:    4839219 HIT:    4781368 MISS:      57851
cpu0_ITLB LOAD         ACCESS:    4839219 HIT:    4781368 MISS:      57851
cpu0_ITLB RFO          ACCESS:          0 HIT:          0 MISS:          0
cpu0_ITLB PREFETCH     ACCESS:          0 HIT:          0 MISS:          0
cpu0_ITLB WRITE        ACCESS:          0 HIT:          0 MISS:          0
cpu0_ITLB TRANSLATION  ACCESS:          0 HIT:          0 MISS:          0
cpu0_ITLB PREFETCH REQUESTED:          0 ISSUED:          0 USEFUL:          0 USELESS:          0
cpu0_ITLB AVERAGE MISS LATENCY: 4.43 cycles
cpu0_L1D TOTAL        ACCESS:  200328459 HIT:  198647322 MISS:    1681137
cpu0_L1D LOAD         ACCESS:  117085468 HIT:  115771953 MISS:    1313515
cpu0_L1D RFO          ACCESS:          0 HIT:          0 MISS:          0
cpu0_L1D PREFETCH     ACCESS:          0 HIT:          0 MISS:          0
cpu0_L1D WRITE        ACCESS:   83218523 HIT:   82874326 MISS:     344197
cpu0_L1D TRANSLATION  ACCESS:      24468 HIT:       1043 MISS:      23425
cpu0_L1D PREFETCH REQUESTED:          0 ISSUED:          0 USEFUL:          0 USELESS:          0
cpu0_L1D AVERAGE MISS LATENCY: 22.57 cycles
cpu0_L1I TOTAL        ACCESS:    5581495 HIT:    4819962 MISS:     761533
cpu0_L1I LOAD         ACCESS:    5581495 HIT:    4819962 MISS:     761533
cpu0_L1I RFO          ACCESS:          0 HIT:          0 MISS:          0
cpu0_L1I PREFETCH     ACCESS:          0 HIT:          0 MISS:          0
cpu0_L1I WRITE        ACCESS:          0 HIT:          0 MISS:          0
cpu0_L1I TRANSLATION  ACCESS:          0 HIT:          0 MISS:          0
cpu0_L1I PREFETCH REQUESTED:          0 ISSUED:          0 USEFUL:          0 USELESS:          0
cpu0_L1I AVERAGE MISS LATENCY: 8.763 cycles
cpu0_L2C TOTAL        ACCESS:    1668156 HIT:    1210838 MISS:     457318
cpu0_L2C LOAD         ACCESS:    1317203 HIT:     913482 MISS:     403721
cpu0_L2C RFO          ACCESS:      88573 HIT:      55992 MISS:      32581
cpu0_L2C PREFETCH     ACCESS:          0 HIT:          0 MISS:          0
cpu0_L2C WRITE        ACCESS:     239036 HIT:     237225 MISS:       1811
cpu0_L2C TRANSLATION  ACCESS:      23344 HIT:       4139 MISS:      19205
cpu0_L2C PREFETCH REQUESTED:          0 ISSUED:          0 USEFUL:          0 USELESS:          0
cpu0_L2C AVERAGE MISS LATENCY: 71.79 cycles
cpu0_STLB TOTAL        ACCESS:     505121 HIT:     482332 MISS:      22789
cpu0_STLB LOAD         ACCESS:     505121 HIT:     482332 MISS:      22789
cpu0_STLB RFO          ACCESS:          0 HIT:          0 MISS:          0
cpu0_STLB PREFETCH     ACCESS:          0 HIT:          0 MISS:          0
cpu0_STLB WRITE        ACCESS:          0 HIT:          0 MISS:          0
cpu0_STLB TRANSLATION  ACCESS:          0 HIT:          0 MISS:          0
cpu0_STLB PREFETCH REQUESTED:          0 ISSUED:          0 USEFUL:          0 USELESS:          0
cpu0_STLB AVERAGE MISS LATENCY: 185.8 cycles

DRAM Statistics

Channel 0 RQ ROW_BUFFER_HIT:      14846
  ROW_BUFFER_MISS:      39414
 AVG DBUS CONGESTED CYCLE: 3.726
WQ ROW_BUFFER_HIT: Channel 0 
  ROW_BUFFER_MISS:        714
  FULL:       1171
