WARNING: physical memory size is smaller than virtual memory size.

*** ChampSim Multicore Out-of-Order Simulator ***
Warmup Instructions: 50000000
Simulation Instructions: 600000000
Number of CPUs: 1
Page size: 4096

CPU 0 Tage branch predictor
Off-chip DRAM Size: 4 GiB Channels: 1 Width: 64-bit Data Race: 3200 MT/s
Heartbeat CPU 0 instructions: 10000000 cycles: 2500061 heartbeat IPC: 4 cumulative IPC: 4 (Simulation time: 00 hr 04 min 07 sec)
Heartbeat CPU 0 instructions: 20000000 cycles: 5000061 heartbeat IPC: 4 cumulative IPC: 4 (Simulation time: 00 hr 08 min 13 sec)
Heartbeat CPU 0 instructions: 30000000 cycles: 7500061 heartbeat IPC: 4 cumulative IPC: 4 (Simulation time: 00 hr 12 min 19 sec)
Heartbeat CPU 0 instructions: 40000000 cycles: 10000061 heartbeat IPC: 4 cumulative IPC: 4 (Simulation time: 00 hr 16 min 23 sec)
Heartbeat CPU 0 instructions: 50000000 cycles: 12500061 heartbeat IPC: 4 cumulative IPC: 4 (Simulation time: 00 hr 20 min 31 sec)
Warmup finished CPU 0 instructions: 50000000 cycles: 12500062 cumulative IPC: 4 (Simulation time: 00 hr 20 min 31 sec)
Warmup complete CPU 0 instructions: 50000000 cycles: 12500062 cumulative IPC: 4 (Simulation time: 00 hr 20 min 31 sec)
Heartbeat CPU 0 instructions: 60000004 cycles: 15503677 heartbeat IPC: 3.329 cumulative IPC: 3.329 (Simulation time: 00 hr 25 min 41 sec)
Heartbeat CPU 0 instructions: 70000003 cycles: 18382317 heartbeat IPC: 3.474 cumulative IPC: 3.4 (Simulation time: 00 hr 30 min 32 sec)
Heartbeat CPU 0 instructions: 80000002 cycles: 21404747 heartbeat IPC: 3.309 cumulative IPC: 3.369 (Simulation time: 00 hr 35 min 24 sec)
Heartbeat CPU 0 instructions: 90000000 cycles: 24127135 heartbeat IPC: 3.673 cumulative IPC: 3.44 (Simulation time: 00 hr 40 min 10 sec)
Heartbeat CPU 0 instructions: 100000003 cycles: 26893697 heartbeat IPC: 3.615 cumulative IPC: 3.474 (Simulation time: 00 hr 44 min 59 sec)
Heartbeat CPU 0 instructions: 110000001 cycles: 29799971 heartbeat IPC: 3.441 cumulative IPC: 3.468 (Simulation time: 00 hr 49 min 48 sec)
Heartbeat CPU 0 instructions: 120000001 cycles: 32524189 heartbeat IPC: 3.671 cumulative IPC: 3.496 (Simulation time: 00 hr 54 min 33 sec)
Heartbeat CPU 0 instructions: 130000003 cycles: 35426960 heartbeat IPC: 3.445 cumulative IPC: 3.489 (Simulation time: 00 hr 59 min 24 sec)
Heartbeat CPU 0 instructions: 140000002 cycles: 38265022 heartbeat IPC: 3.524 cumulative IPC: 3.493 (Simulation time: 01 hr 04 min 18 sec)
Heartbeat CPU 0 instructions: 150000001 cycles: 41038933 heartbeat IPC: 3.605 cumulative IPC: 3.504 (Simulation time: 01 hr 09 min 04 sec)
Heartbeat CPU 0 instructions: 160000000 cycles: 43953820 heartbeat IPC: 3.431 cumulative IPC: 3.497 (Simulation time: 01 hr 13 min 52 sec)
Heartbeat CPU 0 instructions: 170000001 cycles: 46884845 heartbeat IPC: 3.412 cumulative IPC: 3.49 (Simulation time: 01 hr 18 min 43 sec)
Heartbeat CPU 0 instructions: 180000000 cycles: 49682531 heartbeat IPC: 3.574 cumulative IPC: 3.496 (Simulation time: 01 hr 23 min 32 sec)
Heartbeat CPU 0 instructions: 190000002 cycles: 52390539 heartbeat IPC: 3.693 cumulative IPC: 3.51 (Simulation time: 01 hr 28 min 21 sec)
Heartbeat CPU 0 instructions: 200000002 cycles: 55219937 heartbeat IPC: 3.534 cumulative IPC: 3.511 (Simulation time: 01 hr 33 min 10 sec)
Heartbeat CPU 0 instructions: 210000000 cycles: 58119126 heartbeat IPC: 3.449 cumulative IPC: 3.507 (Simulation time: 01 hr 38 min 00 sec)
Heartbeat CPU 0 instructions: 220000001 cycles: 60883566 heartbeat IPC: 3.617 cumulative IPC: 3.514 (Simulation time: 01 hr 42 min 46 sec)
Heartbeat CPU 0 instructions: 230000002 cycles: 63776820 heartbeat IPC: 3.456 cumulative IPC: 3.51 (Simulation time: 01 hr 47 min 34 sec)
Heartbeat CPU 0 instructions: 240000004 cycles: 66737011 heartbeat IPC: 3.378 cumulative IPC: 3.503 (Simulation time: 01 hr 52 min 27 sec)
Heartbeat CPU 0 instructions: 250000003 cycles: 69643379 heartbeat IPC: 3.441 cumulative IPC: 3.5 (Simulation time: 01 hr 57 min 18 sec)
Heartbeat CPU 0 instructions: 260000001 cycles: 72434967 heartbeat IPC: 3.582 cumulative IPC: 3.504 (Simulation time: 02 hr 02 min 06 sec)
Heartbeat CPU 0 instructions: 270000002 cycles: 77840334 heartbeat IPC: 1.85 cumulative IPC: 3.367 (Simulation time: 02 hr 08 min 38 sec)
Heartbeat CPU 0 instructions: 280000000 cycles: 85711351 heartbeat IPC: 1.27 cumulative IPC: 3.142 (Simulation time: 02 hr 17 min 01 sec)
Heartbeat CPU 0 instructions: 290000000 cycles: 92170673 heartbeat IPC: 1.548 cumulative IPC: 3.012 (Simulation time: 02 hr 24 min 33 sec)
Heartbeat CPU 0 instructions: 300000003 cycles: 97105629 heartbeat IPC: 2.026 cumulative IPC: 2.955 (Simulation time: 02 hr 31 min 16 sec)
Heartbeat CPU 0 instructions: 310000001 cycles: 104430265 heartbeat IPC: 1.365 cumulative IPC: 2.828 (Simulation time: 02 hr 39 min 36 sec)
Heartbeat CPU 0 instructions: 320000004 cycles: 108065867 heartbeat IPC: 2.751 cumulative IPC: 2.825 (Simulation time: 02 hr 45 min 12 sec)
Heartbeat CPU 0 instructions: 330000000 cycles: 111185828 heartbeat IPC: 3.205 cumulative IPC: 2.837 (Simulation time: 02 hr 50 min 31 sec)
Heartbeat CPU 0 instructions: 340000001 cycles: 114040625 heartbeat IPC: 3.503 cumulative IPC: 2.856 (Simulation time: 02 hr 55 min 24 sec)
Heartbeat CPU 0 instructions: 350000000 cycles: 117042763 heartbeat IPC: 3.331 cumulative IPC: 2.87 (Simulation time: 03 hr 00 min 28 sec)
Heartbeat CPU 0 instructions: 360000004 cycles: 119869011 heartbeat IPC: 3.538 cumulative IPC: 2.887 (Simulation time: 03 hr 05 min 02 sec)
Heartbeat CPU 0 instructions: 370000001 cycles: 122694983 heartbeat IPC: 3.539 cumulative IPC: 2.904 (Simulation time: 03 hr 09 min 51 sec)
Heartbeat CPU 0 instructions: 380000004 cycles: 125537558 heartbeat IPC: 3.518 cumulative IPC: 2.919 (Simulation time: 03 hr 14 min 47 sec)
Heartbeat CPU 0 instructions: 390000002 cycles: 128391701 heartbeat IPC: 3.504 cumulative IPC: 2.934 (Simulation time: 03 hr 19 min 42 sec)
Heartbeat CPU 0 instructions: 400000000 cycles: 131292425 heartbeat IPC: 3.447 cumulative IPC: 2.946 (Simulation time: 03 hr 24 min 38 sec)
Heartbeat CPU 0 instructions: 410000000 cycles: 135380199 heartbeat IPC: 2.446 cumulative IPC: 2.93 (Simulation time: 03 hr 30 min 29 sec)
Heartbeat CPU 0 instructions: 420000003 cycles: 140284664 heartbeat IPC: 2.039 cumulative IPC: 2.895 (Simulation time: 03 hr 36 min 58 sec)
Heartbeat CPU 0 instructions: 430000000 cycles: 144641942 heartbeat IPC: 2.295 cumulative IPC: 2.876 (Simulation time: 03 hr 43 min 22 sec)
Heartbeat CPU 0 instructions: 440000004 cycles: 148830222 heartbeat IPC: 2.388 cumulative IPC: 2.861 (Simulation time: 03 hr 49 min 31 sec)
Heartbeat CPU 0 instructions: 450000001 cycles: 153005266 heartbeat IPC: 2.395 cumulative IPC: 2.847 (Simulation time: 03 hr 55 min 38 sec)
Heartbeat CPU 0 instructions: 460000002 cycles: 158261239 heartbeat IPC: 1.903 cumulative IPC: 2.813 (Simulation time: 04 hr 02 min 31 sec)
Heartbeat CPU 0 instructions: 470000003 cycles: 162914324 heartbeat IPC: 2.149 cumulative IPC: 2.792 (Simulation time: 04 hr 08 min 54 sec)
Heartbeat CPU 0 instructions: 480000000 cycles: 165927015 heartbeat IPC: 3.319 cumulative IPC: 2.803 (Simulation time: 04 hr 13 min 53 sec)
Heartbeat CPU 0 instructions: 490000001 cycles: 168972287 heartbeat IPC: 3.284 cumulative IPC: 2.812 (Simulation time: 04 hr 18 min 56 sec)
Heartbeat CPU 0 instructions: 500000002 cycles: 171929934 heartbeat IPC: 3.381 cumulative IPC: 2.823 (Simulation time: 04 hr 23 min 54 sec)
Heartbeat CPU 0 instructions: 510000000 cycles: 174858003 heartbeat IPC: 3.415 cumulative IPC: 2.833 (Simulation time: 04 hr 28 min 53 sec)
Heartbeat CPU 0 instructions: 520000000 cycles: 177772081 heartbeat IPC: 3.432 cumulative IPC: 2.844 (Simulation time: 04 hr 34 min 06 sec)
Heartbeat CPU 0 instructions: 530000001 cycles: 182541496 heartbeat IPC: 2.097 cumulative IPC: 2.823 (Simulation time: 04 hr 40 min 34 sec)
Heartbeat CPU 0 instructions: 540000000 cycles: 187346453 heartbeat IPC: 2.081 cumulative IPC: 2.802 (Simulation time: 04 hr 47 min 07 sec)
Heartbeat CPU 0 instructions: 550000004 cycles: 192810683 heartbeat IPC: 1.83 cumulative IPC: 2.773 (Simulation time: 04 hr 54 min 03 sec)
Heartbeat CPU 0 instructions: 560000004 cycles: 196008777 heartbeat IPC: 3.127 cumulative IPC: 2.779 (Simulation time: 04 hr 59 min 05 sec)
Heartbeat CPU 0 instructions: 570000002 cycles: 198795209 heartbeat IPC: 3.589 cumulative IPC: 2.791 (Simulation time: 05 hr 03 min 59 sec)
Heartbeat CPU 0 instructions: 580000000 cycles: 201661436 heartbeat IPC: 3.489 cumulative IPC: 2.802 (Simulation time: 05 hr 09 min 01 sec)
Heartbeat CPU 0 instructions: 590000001 cycles: 204529531 heartbeat IPC: 3.487 cumulative IPC: 2.812 (Simulation time: 05 hr 13 min 54 sec)
Heartbeat CPU 0 instructions: 600000003 cycles: 207184092 heartbeat IPC: 3.767 cumulative IPC: 2.825 (Simulation time: 05 hr 18 min 43 sec)
Heartbeat CPU 0 instructions: 610000001 cycles: 210011363 heartbeat IPC: 3.537 cumulative IPC: 2.835 (Simulation time: 05 hr 23 min 33 sec)
Heartbeat CPU 0 instructions: 620000004 cycles: 212931058 heartbeat IPC: 3.425 cumulative IPC: 2.844 (Simulation time: 05 hr 28 min 32 sec)
Heartbeat CPU 0 instructions: 630000002 cycles: 215716327 heartbeat IPC: 3.59 cumulative IPC: 2.854 (Simulation time: 05 hr 33 min 25 sec)
Heartbeat CPU 0 instructions: 640000004 cycles: 218728865 heartbeat IPC: 3.319 cumulative IPC: 2.861 (Simulation time: 05 hr 38 min 20 sec)
Heartbeat CPU 0 instructions: 650000001 cycles: 221425498 heartbeat IPC: 3.708 cumulative IPC: 2.872 (Simulation time: 05 hr 43 min 09 sec)
Simulation finished CPU 0 instructions: 600000001 cycles: 208925437 cumulative IPC: 2.872 (Simulation time: 05 hr 43 min 09 sec)
Simulation complete CPU 0 instructions: 600000001 cycles: 208925437 cumulative IPC: 2.872 (Simulation time: 05 hr 43 min 09 sec)

ChampSim completed all CPUs

=== Simulation ===
CPU 0 runs traces/400.perlbench-50B.champsimtrace.xz
Region of Interest Statistics

CPU 0 cumulative IPC: 2.872 instructions: 600000001 cycles: 208925437
CPU 0 Branch Prediction Accuracy: 99.01% MPKI: 2.04 Average ROB Occupancy at Mispredict: 93.06
Branch type MPKI
BRANCH_DIRECT_JUMP: 0.0176
BRANCH_INDIRECT: 0.38
BRANCH_CONDITIONAL: 1.19
BRANCH_DIRECT_CALL: 0.0067
BRANCH_INDIRECT_CALL: 0.431
BRANCH_RETURN: 0.0161

LLC TOTAL        ACCESS:    1354678 HIT:    1163558 MISS:     191120
LLC LOAD         ACCESS:     578863 HIT:     495723 MISS:      83140
LLC RFO          ACCESS:      47489 HIT:      38112 MISS:       9377
LLC PREFETCH     ACCESS:     578863 HIT:     490532 MISS:      88331
LLC WRITE        ACCESS:     127378 HIT:     126921 MISS:        457
LLC TRANSLATION  ACCESS:      22085 HIT:      12270 MISS:       9815
LLC PREFETCH REQUESTED:     578863 ISSUED:     578863 USEFUL:      31840 USELESS:      11539
LLC AVERAGE MISS LATENCY: 528.7 cycles
cpu0_DTLB TOTAL        ACCESS:  133229258 HIT:  131875865 MISS:    1353393
cpu0_DTLB LOAD         ACCESS:  133229258 HIT:  131875865 MISS:    1353393
cpu0_DTLB RFO          ACCESS:          0 HIT:          0 MISS:          0
cpu0_DTLB PREFETCH     ACCESS:          0 HIT:          0 MISS:          0
cpu0_DTLB WRITE        ACCESS:          0 HIT:          0 MISS:          0
cpu0_DTLB TRANSLATION  ACCESS:          0 HIT:          0 MISS:          0
cpu0_DTLB PREFETCH REQUESTED:          0 ISSUED:          0 USEFUL:          0 USELESS:          0
cpu0_DTLB AVERAGE MISS LATENCY: 9.882 cycles
cpu0_ITLB TOTAL        ACCESS:    8982645 HIT:    8773144 MISS:     209501
cpu0_ITLB LOAD         ACCESS:    8982645 HIT:    8773144 MISS:     209501
cpu0_ITLB RFO          ACCESS:          0 HIT:          0 MISS:          0
cpu0_ITLB PREFETCH     ACCESS:          0 HIT:          0 MISS:          0
cpu0_ITLB WRITE        ACCESS:          0 HIT:          0 MISS:          0
cpu0_ITLB TRANSLATION  ACCESS:          0 HIT:          0 MISS:          0
cpu0_ITLB PREFETCH REQUESTED:          0 ISSUED:          0 USEFUL:          0 USELESS:          0
cpu0_ITLB AVERAGE MISS LATENCY: 2.445 cycles
cpu0_L1D TOTAL        ACCESS:  178301888 HIT:  174563172 MISS:    3738716
cpu0_L1D LOAD         ACCESS:   92782491 HIT:   89712184 MISS:    3070307
cpu0_L1D RFO          ACCESS:          0 HIT:          0 MISS:          0
cpu0_L1D PREFETCH     ACCESS:          0 HIT:          0 MISS:          0
cpu0_L1D WRITE        ACCESS:   85490865 HIT:   84849559 MISS:     641306
cpu0_L1D TRANSLATION  ACCESS:      28532 HIT:       1429 MISS:      27103
cpu0_L1D PREFETCH REQUESTED:          0 ISSUED:          0 USEFUL:          0 USELESS:          0
cpu0_L1D AVERAGE MISS LATENCY: 22.07 cycles
cpu0_L1I TOTAL        ACCESS:   10503672 HIT:    8604915 MISS:    1898757
cpu0_L1I LOAD         ACCESS:   10503672 HIT:    8604915 MISS:    1898757
cpu0_L1I RFO          ACCESS:          0 HIT:          0 MISS:          0
cpu0_L1I PREFETCH     ACCESS:          0 HIT:          0 MISS:          0
cpu0_L1I WRITE        ACCESS:          0 HIT:          0 MISS:          0
cpu0_L1I TRANSLATION  ACCESS:          0 HIT:          0 MISS:          0
cpu0_L1I PREFETCH REQUESTED:          0 ISSUED:          0 USEFUL:          0 USELESS:          0
cpu0_L1I AVERAGE MISS LATENCY: 8.221 cycles
cpu0_L2C TOTAL        ACCESS:    3840399 HIT:    3189006 MISS:     651393
cpu0_L2C LOAD         ACCESS:    3103840 HIT:    2524977 MISS:     578863
cpu0_L2C RFO          ACCESS:     194847 HIT:     147358 MISS:      47489
cpu0_L2C PREFETCH     ACCESS:          0 HIT:          0 MISS:          0
cpu0_L2C WRITE        ACCESS:     514682 HIT:     511726 MISS:       2956
cpu0_L2C TRANSLATION  ACCESS:      27030 HIT:       4945 MISS:      22085
cpu0_L2C PREFETCH REQUESTED:          0 ISSUED:          0 USEFUL:          0 USELESS:          0
cpu0_L2C AVERAGE MISS LATENCY: 112.3 cycles
cpu0_STLB TOTAL        ACCESS:    1009781 HIT:     983090 MISS:      26691
cpu0_STLB LOAD         ACCESS:    1009781 HIT:     983090 MISS:      26691
cpu0_STLB RFO          ACCESS:          0 HIT:          0 MISS:          0
cpu0_STLB PREFETCH     ACCESS:          0 HIT:          0 MISS:          0
cpu0_STLB WRITE        ACCESS:          0 HIT:          0 MISS:          0
cpu0_STLB TRANSLATION  ACCESS:          0 HIT:          0 MISS:          0
cpu0_STLB PREFETCH REQUESTED:          0 ISSUED:          0 USEFUL:          0 USELESS:          0
cpu0_STLB AVERAGE MISS LATENCY: 288.5 cycles

DRAM Statistics

Channel 0 RQ ROW_BUFFER_HIT:      44940
  ROW_BUFFER_MISS:     113296
 AVG DBUS CONGESTED CYCLE: 3.846
WQ ROW_BUFFER_HIT: Channel 0 
  ROW_BUFFER_MISS:       1620
  FULL:       2705
