WARNING: physical memory size is smaller than virtual memory size.

*** ChampSim Multicore Out-of-Order Simulator ***
Warmup Instructions: 50000000
Simulation Instructions: 600000000
Number of CPUs: 1
Page size: 4096

CPU 0 Tage branch predictor
Off-chip DRAM Size: 4 GiB Channels: 1 Width: 64-bit Data Race: 3200 MT/s
Heartbeat CPU 0 instructions: 10000001 cycles: 2500318 heartbeat IPC: 3.999 cumulative IPC: 3.999 (Simulation time: 00 hr 00 min 44 sec)
Heartbeat CPU 0 instructions: 20000002 cycles: 5037121 heartbeat IPC: 3.942 cumulative IPC: 3.971 (Simulation time: 00 hr 01 min 28 sec)
Heartbeat CPU 0 instructions: 30000002 cycles: 7537121 heartbeat IPC: 4 cumulative IPC: 3.98 (Simulation time: 00 hr 02 min 08 sec)
Heartbeat CPU 0 instructions: 40000002 cycles: 10037121 heartbeat IPC: 4 cumulative IPC: 3.985 (Simulation time: 00 hr 02 min 49 sec)
Heartbeat CPU 0 instructions: 50000002 cycles: 12537121 heartbeat IPC: 4 cumulative IPC: 3.988 (Simulation time: 00 hr 03 min 29 sec)
Warmup finished CPU 0 instructions: 50000002 cycles: 12537122 cumulative IPC: 3.988 (Simulation time: 00 hr 03 min 29 sec)
Warmup complete CPU 0 instructions: 50000002 cycles: 12537122 cumulative IPC: 3.988 (Simulation time: 00 hr 03 min 29 sec)
Heartbeat CPU 0 instructions: 60000001 cycles: 15535261 heartbeat IPC: 3.335 cumulative IPC: 3.335 (Simulation time: 00 hr 04 min 17 sec)
Heartbeat CPU 0 instructions: 70000004 cycles: 18612665 heartbeat IPC: 3.249 cumulative IPC: 3.292 (Simulation time: 00 hr 05 min 04 sec)
Heartbeat CPU 0 instructions: 80000001 cycles: 21662309 heartbeat IPC: 3.279 cumulative IPC: 3.288 (Simulation time: 00 hr 05 min 52 sec)
Heartbeat CPU 0 instructions: 90000001 cycles: 24609853 heartbeat IPC: 3.393 cumulative IPC: 3.313 (Simulation time: 00 hr 06 min 40 sec)
Heartbeat CPU 0 instructions: 100000000 cycles: 27521375 heartbeat IPC: 3.435 cumulative IPC: 3.337 (Simulation time: 00 hr 07 min 28 sec)
Heartbeat CPU 0 instructions: 110000000 cycles: 30464748 heartbeat IPC: 3.397 cumulative IPC: 3.347 (Simulation time: 00 hr 08 min 14 sec)
Heartbeat CPU 0 instructions: 120000001 cycles: 33440810 heartbeat IPC: 3.36 cumulative IPC: 3.349 (Simulation time: 00 hr 09 min 01 sec)
Heartbeat CPU 0 instructions: 130000001 cycles: 36298954 heartbeat IPC: 3.499 cumulative IPC: 3.367 (Simulation time: 00 hr 09 min 48 sec)
Heartbeat CPU 0 instructions: 140000001 cycles: 39357306 heartbeat IPC: 3.27 cumulative IPC: 3.356 (Simulation time: 00 hr 10 min 35 sec)
Heartbeat CPU 0 instructions: 150000001 cycles: 42372735 heartbeat IPC: 3.316 cumulative IPC: 3.352 (Simulation time: 00 hr 11 min 23 sec)
Heartbeat CPU 0 instructions: 160000004 cycles: 45393657 heartbeat IPC: 3.31 cumulative IPC: 3.348 (Simulation time: 00 hr 12 min 11 sec)
Heartbeat CPU 0 instructions: 170000000 cycles: 50924371 heartbeat IPC: 1.808 cumulative IPC: 3.126 (Simulation time: 00 hr 13 min 13 sec)
Heartbeat CPU 0 instructions: 180000004 cycles: 56008821 heartbeat IPC: 1.967 cumulative IPC: 2.99 (Simulation time: 00 hr 14 min 15 sec)
Heartbeat CPU 0 instructions: 190000001 cycles: 60478277 heartbeat IPC: 2.237 cumulative IPC: 2.92 (Simulation time: 00 hr 15 min 16 sec)
Heartbeat CPU 0 instructions: 200000004 cycles: 63247389 heartbeat IPC: 3.611 cumulative IPC: 2.958 (Simulation time: 00 hr 16 min 06 sec)
Heartbeat CPU 0 instructions: 210000001 cycles: 66061779 heartbeat IPC: 3.553 cumulative IPC: 2.989 (Simulation time: 00 hr 16 min 54 sec)
Heartbeat CPU 0 instructions: 220000000 cycles: 68867029 heartbeat IPC: 3.565 cumulative IPC: 3.018 (Simulation time: 00 hr 17 min 41 sec)
Heartbeat CPU 0 instructions: 230000002 cycles: 71594473 heartbeat IPC: 3.666 cumulative IPC: 3.048 (Simulation time: 00 hr 18 min 27 sec)
Heartbeat CPU 0 instructions: 240000003 cycles: 74446583 heartbeat IPC: 3.506 cumulative IPC: 3.069 (Simulation time: 00 hr 19 min 13 sec)
Heartbeat CPU 0 instructions: 250000000 cycles: 77264203 heartbeat IPC: 3.549 cumulative IPC: 3.09 (Simulation time: 00 hr 19 min 59 sec)
Heartbeat CPU 0 instructions: 260000002 cycles: 80018069 heartbeat IPC: 3.631 cumulative IPC: 3.112 (Simulation time: 00 hr 20 min 45 sec)
Heartbeat CPU 0 instructions: 270000002 cycles: 82777865 heartbeat IPC: 3.623 cumulative IPC: 3.132 (Simulation time: 00 hr 21 min 31 sec)
Heartbeat CPU 0 instructions: 280000002 cycles: 85511235 heartbeat IPC: 3.658 cumulative IPC: 3.152 (Simulation time: 00 hr 22 min 16 sec)
Heartbeat CPU 0 instructions: 290000002 cycles: 88345444 heartbeat IPC: 3.528 cumulative IPC: 3.166 (Simulation time: 00 hr 23 min 03 sec)
Heartbeat CPU 0 instructions: 300000003 cycles: 91056600 heartbeat IPC: 3.688 cumulative IPC: 3.184 (Simulation time: 00 hr 23 min 50 sec)
Heartbeat CPU 0 instructions: 310000001 cycles: 93871395 heartbeat IPC: 3.553 cumulative IPC: 3.197 (Simulation time: 00 hr 24 min 35 sec)
Heartbeat CPU 0 instructions: 320000003 cycles: 96721175 heartbeat IPC: 3.509 cumulative IPC: 3.207 (Simulation time: 00 hr 25 min 23 sec)
Heartbeat CPU 0 instructions: 330000003 cycles: 99486574 heartbeat IPC: 3.616 cumulative IPC: 3.22 (Simulation time: 00 hr 26 min 08 sec)
Heartbeat CPU 0 instructions: 340000000 cycles: 104276510 heartbeat IPC: 2.088 cumulative IPC: 3.161 (Simulation time: 00 hr 27 min 07 sec)
Heartbeat CPU 0 instructions: 350000000 cycles: 109416994 heartbeat IPC: 1.945 cumulative IPC: 3.097 (Simulation time: 00 hr 28 min 12 sec)
Heartbeat CPU 0 instructions: 360000004 cycles: 114253108 heartbeat IPC: 2.068 cumulative IPC: 3.048 (Simulation time: 00 hr 29 min 14 sec)
Heartbeat CPU 0 instructions: 370000000 cycles: 117084790 heartbeat IPC: 3.531 cumulative IPC: 3.061 (Simulation time: 00 hr 30 min 02 sec)
Heartbeat CPU 0 instructions: 380000003 cycles: 119868388 heartbeat IPC: 3.592 cumulative IPC: 3.075 (Simulation time: 00 hr 30 min 51 sec)
Heartbeat CPU 0 instructions: 390000002 cycles: 122756855 heartbeat IPC: 3.462 cumulative IPC: 3.085 (Simulation time: 00 hr 31 min 42 sec)
Heartbeat CPU 0 instructions: 400000004 cycles: 125602538 heartbeat IPC: 3.514 cumulative IPC: 3.096 (Simulation time: 00 hr 32 min 30 sec)
Heartbeat CPU 0 instructions: 410000002 cycles: 128391182 heartbeat IPC: 3.586 cumulative IPC: 3.107 (Simulation time: 00 hr 33 min 15 sec)
Heartbeat CPU 0 instructions: 420000003 cycles: 131271560 heartbeat IPC: 3.472 cumulative IPC: 3.116 (Simulation time: 00 hr 33 min 59 sec)
Heartbeat CPU 0 instructions: 430000001 cycles: 134172433 heartbeat IPC: 3.447 cumulative IPC: 3.124 (Simulation time: 00 hr 34 min 44 sec)
Heartbeat CPU 0 instructions: 440000004 cycles: 137141830 heartbeat IPC: 3.368 cumulative IPC: 3.13 (Simulation time: 00 hr 35 min 30 sec)
Heartbeat CPU 0 instructions: 450000002 cycles: 139912840 heartbeat IPC: 3.609 cumulative IPC: 3.14 (Simulation time: 00 hr 36 min 14 sec)
Heartbeat CPU 0 instructions: 460000000 cycles: 142711043 heartbeat IPC: 3.574 cumulative IPC: 3.15 (Simulation time: 00 hr 37 min 00 sec)
Heartbeat CPU 0 instructions: 470000001 cycles: 145451987 heartbeat IPC: 3.648 cumulative IPC: 3.16 (Simulation time: 00 hr 37 min 48 sec)
Heartbeat CPU 0 instructions: 480000003 cycles: 148359035 heartbeat IPC: 3.44 cumulative IPC: 3.166 (Simulation time: 00 hr 38 min 38 sec)
Heartbeat CPU 0 instructions: 490000004 cycles: 151106092 heartbeat IPC: 3.64 cumulative IPC: 3.175 (Simulation time: 00 hr 39 min 26 sec)
Heartbeat CPU 0 instructions: 500000004 cycles: 154005092 heartbeat IPC: 3.449 cumulative IPC: 3.181 (Simulation time: 00 hr 40 min 12 sec)
Heartbeat CPU 0 instructions: 510000003 cycles: 156883934 heartbeat IPC: 3.474 cumulative IPC: 3.187 (Simulation time: 00 hr 41 min 01 sec)
Heartbeat CPU 0 instructions: 520000001 cycles: 159622007 heartbeat IPC: 3.652 cumulative IPC: 3.195 (Simulation time: 00 hr 41 min 48 sec)
Heartbeat CPU 0 instructions: 530000001 cycles: 162491407 heartbeat IPC: 3.485 cumulative IPC: 3.201 (Simulation time: 00 hr 42 min 35 sec)
Heartbeat CPU 0 instructions: 540000000 cycles: 165327922 heartbeat IPC: 3.525 cumulative IPC: 3.207 (Simulation time: 00 hr 43 min 22 sec)
Heartbeat CPU 0 instructions: 550000001 cycles: 168211894 heartbeat IPC: 3.467 cumulative IPC: 3.212 (Simulation time: 00 hr 44 min 09 sec)
Heartbeat CPU 0 instructions: 560000000 cycles: 171103411 heartbeat IPC: 3.458 cumulative IPC: 3.216 (Simulation time: 00 hr 44 min 55 sec)
Heartbeat CPU 0 instructions: 570000004 cycles: 174919291 heartbeat IPC: 2.621 cumulative IPC: 3.202 (Simulation time: 00 hr 45 min 49 sec)
Heartbeat CPU 0 instructions: 580000003 cycles: 180164917 heartbeat IPC: 1.906 cumulative IPC: 3.162 (Simulation time: 00 hr 46 min 54 sec)
Heartbeat CPU 0 instructions: 590000002 cycles: 186036478 heartbeat IPC: 1.703 cumulative IPC: 3.112 (Simulation time: 00 hr 48 min 03 sec)
Heartbeat CPU 0 instructions: 600000004 cycles: 188937520 heartbeat IPC: 3.447 cumulative IPC: 3.118 (Simulation time: 00 hr 48 min 53 sec)
Heartbeat CPU 0 instructions: 610000002 cycles: 191793181 heartbeat IPC: 3.502 cumulative IPC: 3.124 (Simulation time: 00 hr 49 min 39 sec)
Heartbeat CPU 0 instructions: 620000001 cycles: 194506296 heartbeat IPC: 3.686 cumulative IPC: 3.132 (Simulation time: 00 hr 50 min 27 sec)
Heartbeat CPU 0 instructions: 630000002 cycles: 197379334 heartbeat IPC: 3.481 cumulative IPC: 3.138 (Simulation time: 00 hr 51 min 13 sec)
Heartbeat CPU 0 instructions: 640000004 cycles: 200291974 heartbeat IPC: 3.433 cumulative IPC: 3.142 (Simulation time: 00 hr 52 min 00 sec)
Heartbeat CPU 0 instructions: 650000000 cycles: 203001944 heartbeat IPC: 3.69 cumulative IPC: 3.15 (Simulation time: 00 hr 52 min 47 sec)
Simulation finished CPU 0 instructions: 600000001 cycles: 190464824 cumulative IPC: 3.15 (Simulation time: 00 hr 52 min 47 sec)
Simulation complete CPU 0 instructions: 600000001 cycles: 190464824 cumulative IPC: 3.15 (Simulation time: 00 hr 52 min 47 sec)

ChampSim completed all CPUs

=== Simulation ===
CPU 0 runs traces/400.perlbench-41B.champsimtrace.xz
Region of Interest Statistics

CPU 0 cumulative IPC: 3.15 instructions: 600000001 cycles: 190464824
CPU 0 Branch Prediction Accuracy: 99.19% MPKI: 1.684 Average ROB Occupancy at Mispredict: 100.6
Branch type MPKI
BRANCH_DIRECT_JUMP: 0.0123
BRANCH_INDIRECT: 0.323
BRANCH_CONDITIONAL: 1.14
BRANCH_DIRECT_CALL: 0.0043
BRANCH_INDIRECT_CALL: 0.2
BRANCH_RETURN: 0.00828

LLC TOTAL        ACCESS:     939656 HIT:     828267 MISS:     111389
LLC LOAD         ACCESS:     401472 HIT:     352713 MISS:      48759
LLC RFO          ACCESS:      32518 HIT:      27140 MISS:       5378
LLC PREFETCH     ACCESS:     401472 HIT:     351545 MISS:      49927
LLC WRITE        ACCESS:      85122 HIT:      85012 MISS:        110
LLC TRANSLATION  ACCESS:      19072 HIT:      11857 MISS:       7215
LLC PREFETCH REQUESTED:     401472 ISSUED:     401472 USEFUL:      18518 USELESS:      10700
LLC AVERAGE MISS LATENCY: 513.4 cycles
cpu0_DTLB TOTAL        ACCESS:  129753305 HIT:  129052084 MISS:     701221
cpu0_DTLB LOAD         ACCESS:  129753305 HIT:  129052084 MISS:     701221
cpu0_DTLB RFO          ACCESS:          0 HIT:          0 MISS:          0
cpu0_DTLB PREFETCH     ACCESS:          0 HIT:          0 MISS:          0
cpu0_DTLB WRITE        ACCESS:          0 HIT:          0 MISS:          0
cpu0_DTLB TRANSLATION  ACCESS:          0 HIT:          0 MISS:          0
cpu0_DTLB PREFETCH REQUESTED:          0 ISSUED:          0 USEFUL:          0 USELESS:          0
cpu0_DTLB AVERAGE MISS LATENCY: 11.1 cycles
cpu0_ITLB TOTAL        ACCESS:    4860932 HIT:    4798752 MISS:      62180
cpu0_ITLB LOAD         ACCESS:    4860932 HIT:    4798752 MISS:      62180
cpu0_ITLB RFO          ACCESS:          0 HIT:          0 MISS:          0
cpu0_ITLB PREFETCH     ACCESS:          0 HIT:          0 MISS:          0
cpu0_ITLB WRITE        ACCESS:          0 HIT:          0 MISS:          0
cpu0_ITLB TRANSLATION  ACCESS:          0 HIT:          0 MISS:          0
cpu0_ITLB PREFETCH REQUESTED:          0 ISSUED:          0 USEFUL:          0 USELESS:          0
cpu0_ITLB AVERAGE MISS LATENCY: 4.491 cycles
cpu0_L1D TOTAL        ACCESS:  174380892 HIT:  172644553 MISS:    1736339
cpu0_L1D LOAD         ACCESS:   91357231 HIT:   90005689 MISS:    1351542
cpu0_L1D RFO          ACCESS:          0 HIT:          0 MISS:          0
cpu0_L1D PREFETCH     ACCESS:          0 HIT:          0 MISS:          0
cpu0_L1D WRITE        ACCESS:   82999192 HIT:   82637794 MISS:     361398
cpu0_L1D TRANSLATION  ACCESS:      24469 HIT:       1070 MISS:      23399
cpu0_L1D PREFETCH REQUESTED:          0 ISSUED:          0 USEFUL:          0 USELESS:          0
cpu0_L1D AVERAGE MISS LATENCY: 27.89 cycles
cpu0_L1I TOTAL        ACCESS:    5640931 HIT:    4836980 MISS:     803951
cpu0_L1I LOAD         ACCESS:    5640931 HIT:    4836980 MISS:     803951
cpu0_L1I RFO          ACCESS:          0 HIT:          0 MISS:          0
cpu0_L1I PREFETCH     ACCESS:          0 HIT:          0 MISS:          0
cpu0_L1I WRITE        ACCESS:          0 HIT:          0 MISS:          0
cpu0_L1I TRANSLATION  ACCESS:          0 HIT:          0 MISS:          0
cpu0_L1I PREFETCH REQUESTED:          0 ISSUED:          0 USEFUL:          0 USELESS:          0
cpu0_L1I AVERAGE MISS LATENCY: 8.181 cycles
cpu0_L2C TOTAL        ACCESS:    1668366 HIT:    1213491 MISS:     454875
cpu0_L2C LOAD         ACCESS:    1315344 HIT:     913872 MISS:     401472
cpu0_L2C RFO          ACCESS:      89549 HIT:      57031 MISS:      32518
cpu0_L2C PREFETCH     ACCESS:          0 HIT:          0 MISS:          0
cpu0_L2C WRITE        ACCESS:     240154 HIT:     238341 MISS:       1813
cpu0_L2C TRANSLATION  ACCESS:      23319 HIT:       4247 MISS:      19072
cpu0_L2C PREFETCH REQUESTED:          0 ISSUED:          0 USEFUL:          0 USELESS:          0
cpu0_L2C AVERAGE MISS LATENCY: 99.83 cycles
cpu0_STLB TOTAL        ACCESS:     508010 HIT:     485222 MISS:      22788
cpu0_STLB LOAD         ACCESS:     508010 HIT:     485222 MISS:      22788
cpu0_STLB RFO          ACCESS:          0 HIT:          0 MISS:          0
cpu0_STLB PREFETCH     ACCESS:          0 HIT:          0 MISS:          0
cpu0_STLB WRITE        ACCESS:          0 HIT:          0 MISS:          0
cpu0_STLB TRANSLATION  ACCESS:          0 HIT:          0 MISS:          0
cpu0_STLB PREFETCH REQUESTED:          0 ISSUED:          0 USEFUL:          0 USELESS:          0
cpu0_STLB AVERAGE MISS LATENCY: 218.9 cycles

DRAM Statistics

Channel 0 RQ ROW_BUFFER_HIT:      21728
  ROW_BUFFER_MISS:      68932
 AVG DBUS CONGESTED CYCLE: 3.836
WQ ROW_BUFFER_HIT: Channel 0 
  ROW_BUFFER_MISS:       2219
  FULL:       3627
Final OPTGen Hits: 11814
Final OPTGen Access: 9181
Final OPTGEN Hit Rate: 128.679
