WARNING: physical memory size is smaller than virtual memory size.

*** ChampSim Multicore Out-of-Order Simulator ***
Warmup Instructions: 50000000
Simulation Instructions: 600000000
Number of CPUs: 1
Page size: 4096

CPU 0 Tage branch predictor
Off-chip DRAM Size: 4 GiB Channels: 1 Width: 64-bit Data Race: 3200 MT/s
Heartbeat CPU 0 instructions: 10000001 cycles: 2500318 heartbeat IPC: 3.999 cumulative IPC: 3.999 (Simulation time: 00 hr 00 min 45 sec)
Heartbeat CPU 0 instructions: 20000002 cycles: 5037133 heartbeat IPC: 3.942 cumulative IPC: 3.971 (Simulation time: 00 hr 01 min 30 sec)
Heartbeat CPU 0 instructions: 30000002 cycles: 7537133 heartbeat IPC: 4 cumulative IPC: 3.98 (Simulation time: 00 hr 02 min 10 sec)
Heartbeat CPU 0 instructions: 40000002 cycles: 10037133 heartbeat IPC: 4 cumulative IPC: 3.985 (Simulation time: 00 hr 02 min 51 sec)
Heartbeat CPU 0 instructions: 50000002 cycles: 12537133 heartbeat IPC: 4 cumulative IPC: 3.988 (Simulation time: 00 hr 03 min 33 sec)
Warmup finished CPU 0 instructions: 50000002 cycles: 12537134 cumulative IPC: 3.988 (Simulation time: 00 hr 03 min 33 sec)
Warmup complete CPU 0 instructions: 50000002 cycles: 12537134 cumulative IPC: 3.988 (Simulation time: 00 hr 03 min 33 sec)
Heartbeat CPU 0 instructions: 60000001 cycles: 15497933 heartbeat IPC: 3.377 cumulative IPC: 3.377 (Simulation time: 00 hr 04 min 22 sec)
Heartbeat CPU 0 instructions: 70000004 cycles: 18555730 heartbeat IPC: 3.27 cumulative IPC: 3.323 (Simulation time: 00 hr 05 min 08 sec)
Heartbeat CPU 0 instructions: 80000001 cycles: 21588864 heartbeat IPC: 3.297 cumulative IPC: 3.314 (Simulation time: 00 hr 05 min 54 sec)
Heartbeat CPU 0 instructions: 90000001 cycles: 24522196 heartbeat IPC: 3.409 cumulative IPC: 3.337 (Simulation time: 00 hr 06 min 41 sec)
Heartbeat CPU 0 instructions: 100000000 cycles: 27421166 heartbeat IPC: 3.45 cumulative IPC: 3.359 (Simulation time: 00 hr 07 min 29 sec)
Heartbeat CPU 0 instructions: 110000000 cycles: 30352644 heartbeat IPC: 3.411 cumulative IPC: 3.368 (Simulation time: 00 hr 08 min 16 sec)
Heartbeat CPU 0 instructions: 120000001 cycles: 33314955 heartbeat IPC: 3.376 cumulative IPC: 3.369 (Simulation time: 00 hr 09 min 03 sec)
Heartbeat CPU 0 instructions: 130000001 cycles: 36157964 heartbeat IPC: 3.517 cumulative IPC: 3.387 (Simulation time: 00 hr 09 min 50 sec)
Heartbeat CPU 0 instructions: 140000001 cycles: 39181554 heartbeat IPC: 3.307 cumulative IPC: 3.378 (Simulation time: 00 hr 10 min 36 sec)
Heartbeat CPU 0 instructions: 150000001 cycles: 42171793 heartbeat IPC: 3.344 cumulative IPC: 3.374 (Simulation time: 00 hr 11 min 22 sec)
Heartbeat CPU 0 instructions: 160000004 cycles: 45160483 heartbeat IPC: 3.346 cumulative IPC: 3.372 (Simulation time: 00 hr 12 min 08 sec)
Heartbeat CPU 0 instructions: 170000000 cycles: 50594688 heartbeat IPC: 1.84 cumulative IPC: 3.153 (Simulation time: 00 hr 13 min 08 sec)
Heartbeat CPU 0 instructions: 180000004 cycles: 55292616 heartbeat IPC: 2.129 cumulative IPC: 3.041 (Simulation time: 00 hr 14 min 06 sec)
Heartbeat CPU 0 instructions: 190000001 cycles: 59708679 heartbeat IPC: 2.264 cumulative IPC: 2.968 (Simulation time: 00 hr 15 min 01 sec)
Heartbeat CPU 0 instructions: 200000004 cycles: 62467976 heartbeat IPC: 3.624 cumulative IPC: 3.004 (Simulation time: 00 hr 15 min 46 sec)
Heartbeat CPU 0 instructions: 210000001 cycles: 65272464 heartbeat IPC: 3.566 cumulative IPC: 3.034 (Simulation time: 00 hr 16 min 31 sec)
Heartbeat CPU 0 instructions: 220000000 cycles: 68071386 heartbeat IPC: 3.573 cumulative IPC: 3.061 (Simulation time: 00 hr 17 min 15 sec)
Heartbeat CPU 0 instructions: 230000002 cycles: 70780134 heartbeat IPC: 3.692 cumulative IPC: 3.091 (Simulation time: 00 hr 18 min 00 sec)
Heartbeat CPU 0 instructions: 240000003 cycles: 73614952 heartbeat IPC: 3.528 cumulative IPC: 3.111 (Simulation time: 00 hr 18 min 45 sec)
Heartbeat CPU 0 instructions: 250000000 cycles: 76403715 heartbeat IPC: 3.586 cumulative IPC: 3.132 (Simulation time: 00 hr 19 min 31 sec)
Heartbeat CPU 0 instructions: 260000002 cycles: 79133602 heartbeat IPC: 3.663 cumulative IPC: 3.153 (Simulation time: 00 hr 20 min 15 sec)
Heartbeat CPU 0 instructions: 270000002 cycles: 81878698 heartbeat IPC: 3.643 cumulative IPC: 3.173 (Simulation time: 00 hr 21 min 00 sec)
Heartbeat CPU 0 instructions: 280000002 cycles: 84585323 heartbeat IPC: 3.695 cumulative IPC: 3.192 (Simulation time: 00 hr 21 min 45 sec)
Heartbeat CPU 0 instructions: 290000002 cycles: 87400091 heartbeat IPC: 3.553 cumulative IPC: 3.206 (Simulation time: 00 hr 22 min 30 sec)
Heartbeat CPU 0 instructions: 300000003 cycles: 90075800 heartbeat IPC: 3.737 cumulative IPC: 3.224 (Simulation time: 00 hr 23 min 16 sec)
Heartbeat CPU 0 instructions: 310000001 cycles: 92853466 heartbeat IPC: 3.6 cumulative IPC: 3.237 (Simulation time: 00 hr 24 min 01 sec)
Heartbeat CPU 0 instructions: 320000003 cycles: 95665438 heartbeat IPC: 3.556 cumulative IPC: 3.248 (Simulation time: 00 hr 24 min 46 sec)
Heartbeat CPU 0 instructions: 330000003 cycles: 98378400 heartbeat IPC: 3.686 cumulative IPC: 3.262 (Simulation time: 00 hr 25 min 31 sec)
Heartbeat CPU 0 instructions: 340000000 cycles: 102709522 heartbeat IPC: 2.309 cumulative IPC: 3.216 (Simulation time: 00 hr 26 min 27 sec)
Heartbeat CPU 0 instructions: 350000000 cycles: 107437622 heartbeat IPC: 2.115 cumulative IPC: 3.161 (Simulation time: 00 hr 27 min 26 sec)
Heartbeat CPU 0 instructions: 360000004 cycles: 112078583 heartbeat IPC: 2.155 cumulative IPC: 3.114 (Simulation time: 00 hr 28 min 23 sec)
Heartbeat CPU 0 instructions: 370000000 cycles: 114888678 heartbeat IPC: 3.559 cumulative IPC: 3.126 (Simulation time: 00 hr 29 min 08 sec)
Heartbeat CPU 0 instructions: 380000003 cycles: 117652882 heartbeat IPC: 3.618 cumulative IPC: 3.139 (Simulation time: 00 hr 29 min 54 sec)
Heartbeat CPU 0 instructions: 390000002 cycles: 120523917 heartbeat IPC: 3.483 cumulative IPC: 3.149 (Simulation time: 00 hr 30 min 39 sec)
Heartbeat CPU 0 instructions: 400000004 cycles: 123359437 heartbeat IPC: 3.527 cumulative IPC: 3.158 (Simulation time: 00 hr 31 min 25 sec)
Heartbeat CPU 0 instructions: 410000002 cycles: 126125671 heartbeat IPC: 3.615 cumulative IPC: 3.169 (Simulation time: 00 hr 32 min 09 sec)
Heartbeat CPU 0 instructions: 420000003 cycles: 128973266 heartbeat IPC: 3.512 cumulative IPC: 3.178 (Simulation time: 00 hr 32 min 55 sec)
Heartbeat CPU 0 instructions: 430000001 cycles: 131847054 heartbeat IPC: 3.48 cumulative IPC: 3.185 (Simulation time: 00 hr 33 min 41 sec)
Heartbeat CPU 0 instructions: 440000004 cycles: 134775582 heartbeat IPC: 3.415 cumulative IPC: 3.19 (Simulation time: 00 hr 34 min 27 sec)
Heartbeat CPU 0 instructions: 450000002 cycles: 137513729 heartbeat IPC: 3.652 cumulative IPC: 3.201 (Simulation time: 00 hr 35 min 12 sec)
Heartbeat CPU 0 instructions: 460000000 cycles: 140286360 heartbeat IPC: 3.607 cumulative IPC: 3.209 (Simulation time: 00 hr 35 min 57 sec)
Heartbeat CPU 0 instructions: 470000001 cycles: 142998548 heartbeat IPC: 3.687 cumulative IPC: 3.219 (Simulation time: 00 hr 36 min 42 sec)
Heartbeat CPU 0 instructions: 480000003 cycles: 145877080 heartbeat IPC: 3.474 cumulative IPC: 3.225 (Simulation time: 00 hr 37 min 27 sec)
Heartbeat CPU 0 instructions: 490000004 cycles: 148593361 heartbeat IPC: 3.682 cumulative IPC: 3.234 (Simulation time: 00 hr 38 min 12 sec)
Heartbeat CPU 0 instructions: 500000004 cycles: 151469929 heartbeat IPC: 3.476 cumulative IPC: 3.239 (Simulation time: 00 hr 38 min 58 sec)
Heartbeat CPU 0 instructions: 510000003 cycles: 154313205 heartbeat IPC: 3.517 cumulative IPC: 3.245 (Simulation time: 00 hr 39 min 44 sec)
Heartbeat CPU 0 instructions: 520000001 cycles: 157009332 heartbeat IPC: 3.709 cumulative IPC: 3.253 (Simulation time: 00 hr 40 min 29 sec)
Heartbeat CPU 0 instructions: 530000001 cycles: 159856393 heartbeat IPC: 3.512 cumulative IPC: 3.258 (Simulation time: 00 hr 41 min 15 sec)
Heartbeat CPU 0 instructions: 540000000 cycles: 162655294 heartbeat IPC: 3.573 cumulative IPC: 3.264 (Simulation time: 00 hr 42 min 00 sec)
Heartbeat CPU 0 instructions: 550000001 cycles: 165506188 heartbeat IPC: 3.508 cumulative IPC: 3.269 (Simulation time: 00 hr 42 min 46 sec)
Heartbeat CPU 0 instructions: 560000000 cycles: 168352873 heartbeat IPC: 3.513 cumulative IPC: 3.273 (Simulation time: 00 hr 43 min 33 sec)
Heartbeat CPU 0 instructions: 570000004 cycles: 171928759 heartbeat IPC: 2.797 cumulative IPC: 3.262 (Simulation time: 00 hr 44 min 27 sec)
Heartbeat CPU 0 instructions: 580000003 cycles: 176603059 heartbeat IPC: 2.139 cumulative IPC: 3.23 (Simulation time: 00 hr 45 min 29 sec)
Heartbeat CPU 0 instructions: 590000002 cycles: 181701094 heartbeat IPC: 1.962 cumulative IPC: 3.192 (Simulation time: 00 hr 46 min 36 sec)
Heartbeat CPU 0 instructions: 600000004 cycles: 184571686 heartbeat IPC: 3.484 cumulative IPC: 3.197 (Simulation time: 00 hr 47 min 23 sec)
Heartbeat CPU 0 instructions: 610000002 cycles: 187399198 heartbeat IPC: 3.537 cumulative IPC: 3.203 (Simulation time: 00 hr 48 min 08 sec)
Heartbeat CPU 0 instructions: 620000001 cycles: 190096877 heartbeat IPC: 3.707 cumulative IPC: 3.21 (Simulation time: 00 hr 48 min 56 sec)
Heartbeat CPU 0 instructions: 630000002 cycles: 192949436 heartbeat IPC: 3.506 cumulative IPC: 3.215 (Simulation time: 00 hr 49 min 45 sec)
Heartbeat CPU 0 instructions: 640000004 cycles: 195849681 heartbeat IPC: 3.448 cumulative IPC: 3.219 (Simulation time: 00 hr 50 min 36 sec)
Heartbeat CPU 0 instructions: 650000000 cycles: 198552239 heartbeat IPC: 3.7 cumulative IPC: 3.226 (Simulation time: 00 hr 51 min 24 sec)
Simulation finished CPU 0 instructions: 600000001 cycles: 186015107 cumulative IPC: 3.226 (Simulation time: 00 hr 51 min 24 sec)
Simulation complete CPU 0 instructions: 600000001 cycles: 186015107 cumulative IPC: 3.226 (Simulation time: 00 hr 51 min 24 sec)

ChampSim completed all CPUs

=== Simulation ===
CPU 0 runs traces/400.perlbench-41B.champsimtrace.xz
Region of Interest Statistics

CPU 0 cumulative IPC: 3.226 instructions: 600000001 cycles: 186015107
CPU 0 Branch Prediction Accuracy: 99.19% MPKI: 1.684 Average ROB Occupancy at Mispredict: 100.4
Branch type MPKI
BRANCH_DIRECT_JUMP: 0.0123
BRANCH_INDIRECT: 0.323
BRANCH_CONDITIONAL: 1.14
BRANCH_DIRECT_CALL: 0.0043
BRANCH_INDIRECT_CALL: 0.2
BRANCH_RETURN: 0.00828

LLC TOTAL        ACCESS:     541155 HIT:     492641 MISS:      48514
LLC LOAD         ACCESS:     403792 HIT:     365790 MISS:      38002
LLC RFO          ACCESS:      32550 HIT:      28623 MISS:       3927
LLC PREFETCH     ACCESS:          0 HIT:          0 MISS:          0
LLC WRITE        ACCESS:      85656 HIT:      85644 MISS:         12
LLC TRANSLATION  ACCESS:      19157 HIT:      12584 MISS:       6573
LLC PREFETCH REQUESTED:          0 ISSUED:          0 USEFUL:          0 USELESS:          0
LLC AVERAGE MISS LATENCY: 539.4 cycles
cpu0_DTLB TOTAL        ACCESS:  129751183 HIT:  129050120 MISS:     701063
cpu0_DTLB LOAD         ACCESS:  129751183 HIT:  129050120 MISS:     701063
cpu0_DTLB RFO          ACCESS:          0 HIT:          0 MISS:          0
cpu0_DTLB PREFETCH     ACCESS:          0 HIT:          0 MISS:          0
cpu0_DTLB WRITE        ACCESS:          0 HIT:          0 MISS:          0
cpu0_DTLB TRANSLATION  ACCESS:          0 HIT:          0 MISS:          0
cpu0_DTLB PREFETCH REQUESTED:          0 ISSUED:          0 USEFUL:          0 USELESS:          0
cpu0_DTLB AVERAGE MISS LATENCY: 10.15 cycles
cpu0_ITLB TOTAL        ACCESS:    4860802 HIT:    4798694 MISS:      62108
cpu0_ITLB LOAD         ACCESS:    4860802 HIT:    4798694 MISS:      62108
cpu0_ITLB RFO          ACCESS:          0 HIT:          0 MISS:          0
cpu0_ITLB PREFETCH     ACCESS:          0 HIT:          0 MISS:          0
cpu0_ITLB WRITE        ACCESS:          0 HIT:          0 MISS:          0
cpu0_ITLB TRANSLATION  ACCESS:          0 HIT:          0 MISS:          0
cpu0_ITLB PREFETCH REQUESTED:          0 ISSUED:          0 USEFUL:          0 USELESS:          0
cpu0_ITLB AVERAGE MISS LATENCY: 3.89 cycles
cpu0_L1D TOTAL        ACCESS:  174381365 HIT:  172654348 MISS:    1727017
cpu0_L1D LOAD         ACCESS:   91358741 HIT:   90011718 MISS:    1347023
cpu0_L1D RFO          ACCESS:          0 HIT:          0 MISS:          0
cpu0_L1D PREFETCH     ACCESS:          0 HIT:          0 MISS:          0
cpu0_L1D WRITE        ACCESS:   82998159 HIT:   82641566 MISS:     356593
cpu0_L1D TRANSLATION  ACCESS:      24465 HIT:       1064 MISS:      23401
cpu0_L1D PREFETCH REQUESTED:          0 ISSUED:          0 USEFUL:          0 USELESS:          0
cpu0_L1D AVERAGE MISS LATENCY: 22.45 cycles
cpu0_L1I TOTAL        ACCESS:    5640788 HIT:    4836749 MISS:     804039
cpu0_L1I LOAD         ACCESS:    5640788 HIT:    4836749 MISS:     804039
cpu0_L1I RFO          ACCESS:          0 HIT:          0 MISS:          0
cpu0_L1I PREFETCH     ACCESS:          0 HIT:          0 MISS:          0
cpu0_L1I WRITE        ACCESS:          0 HIT:          0 MISS:          0
cpu0_L1I TRANSLATION  ACCESS:          0 HIT:          0 MISS:          0
cpu0_L1I PREFETCH REQUESTED:          0 ISSUED:          0 USEFUL:          0 USELESS:          0
cpu0_L1I AVERAGE MISS LATENCY: 8.082 cycles
cpu0_L2C TOTAL        ACCESS:    1668576 HIT:    1211251 MISS:     457325
cpu0_L2C LOAD         ACCESS:    1315391 HIT:     911599 MISS:     403792
cpu0_L2C RFO          ACCESS:      89534 HIT:      56983 MISS:      32551
cpu0_L2C PREFETCH     ACCESS:          0 HIT:          0 MISS:          0
cpu0_L2C WRITE        ACCESS:     240330 HIT:     238505 MISS:       1825
cpu0_L2C TRANSLATION  ACCESS:      23321 HIT:       4164 MISS:      19157
cpu0_L2C PREFETCH REQUESTED:          0 ISSUED:          0 USEFUL:          0 USELESS:          0
cpu0_L2C AVERAGE MISS LATENCY: 77.26 cycles
cpu0_STLB TOTAL        ACCESS:     507927 HIT:     485139 MISS:      22788
cpu0_STLB LOAD         ACCESS:     507927 HIT:     485139 MISS:      22788
cpu0_STLB RFO          ACCESS:          0 HIT:          0 MISS:          0
cpu0_STLB PREFETCH     ACCESS:          0 HIT:          0 MISS:          0
cpu0_STLB WRITE        ACCESS:          0 HIT:          0 MISS:          0
cpu0_STLB TRANSLATION  ACCESS:          0 HIT:          0 MISS:          0
cpu0_STLB PREFETCH REQUESTED:          0 ISSUED:          0 USEFUL:          0 USELESS:          0
cpu0_STLB AVERAGE MISS LATENCY: 185.9 cycles

DRAM Statistics

Channel 0 RQ ROW_BUFFER_HIT:      13228
  ROW_BUFFER_MISS:      35274
 AVG DBUS CONGESTED CYCLE: 3.756
WQ ROW_BUFFER_HIT: Channel 0 
  ROW_BUFFER_MISS:         93
  FULL:        238
