WARNING: physical memory size is smaller than virtual memory size.

*** ChampSim Multicore Out-of-Order Simulator ***
Warmup Instructions: 50000000
Simulation Instructions: 600000000
Number of CPUs: 1
Page size: 4096

Off-chip DRAM Size: 4 GiB Channels: 1 Width: 64-bit Data Race: 3200 MT/s
Heartbeat CPU 0 instructions: 10000000 cycles: 2500061 heartbeat IPC: 4 cumulative IPC: 4 (Simulation time: 00 hr 03 min 20 sec)
Heartbeat CPU 0 instructions: 20000000 cycles: 5000061 heartbeat IPC: 4 cumulative IPC: 4 (Simulation time: 00 hr 06 min 37 sec)
Heartbeat CPU 0 instructions: 30000000 cycles: 7500061 heartbeat IPC: 4 cumulative IPC: 4 (Simulation time: 00 hr 09 min 53 sec)
Heartbeat CPU 0 instructions: 40000000 cycles: 10000061 heartbeat IPC: 4 cumulative IPC: 4 (Simulation time: 00 hr 13 min 17 sec)
Heartbeat CPU 0 instructions: 50000000 cycles: 12500061 heartbeat IPC: 4 cumulative IPC: 4 (Simulation time: 00 hr 16 min 36 sec)
Warmup finished CPU 0 instructions: 50000000 cycles: 12500062 cumulative IPC: 4 (Simulation time: 00 hr 16 min 36 sec)
Warmup complete CPU 0 instructions: 50000000 cycles: 12500062 cumulative IPC: 4 (Simulation time: 00 hr 16 min 36 sec)
Heartbeat CPU 0 instructions: 60000002 cycles: 16446623 heartbeat IPC: 2.534 cumulative IPC: 2.534 (Simulation time: 00 hr 21 min 09 sec)
Heartbeat CPU 0 instructions: 70000003 cycles: 20770663 heartbeat IPC: 2.313 cumulative IPC: 2.418 (Simulation time: 00 hr 25 min 48 sec)
Heartbeat CPU 0 instructions: 80000003 cycles: 25247437 heartbeat IPC: 2.234 cumulative IPC: 2.353 (Simulation time: 00 hr 30 min 37 sec)
Heartbeat CPU 0 instructions: 90000000 cycles: 28939876 heartbeat IPC: 2.708 cumulative IPC: 2.433 (Simulation time: 00 hr 35 min 00 sec)
Heartbeat CPU 0 instructions: 100000003 cycles: 32843908 heartbeat IPC: 2.561 cumulative IPC: 2.458 (Simulation time: 00 hr 39 min 28 sec)
Heartbeat CPU 0 instructions: 110000002 cycles: 36950135 heartbeat IPC: 2.435 cumulative IPC: 2.454 (Simulation time: 00 hr 44 min 03 sec)
Heartbeat CPU 0 instructions: 120000001 cycles: 40668359 heartbeat IPC: 2.689 cumulative IPC: 2.485 (Simulation time: 00 hr 48 min 26 sec)
Heartbeat CPU 0 instructions: 130000003 cycles: 44444328 heartbeat IPC: 2.648 cumulative IPC: 2.504 (Simulation time: 00 hr 52 min 52 sec)
Heartbeat CPU 0 instructions: 140000002 cycles: 48579315 heartbeat IPC: 2.418 cumulative IPC: 2.495 (Simulation time: 00 hr 57 min 31 sec)
Heartbeat CPU 0 instructions: 150000001 cycles: 52632664 heartbeat IPC: 2.467 cumulative IPC: 2.492 (Simulation time: 01 hr 02 min 05 sec)
Heartbeat CPU 0 instructions: 160000000 cycles: 56291651 heartbeat IPC: 2.733 cumulative IPC: 2.512 (Simulation time: 01 hr 06 min 28 sec)
Heartbeat CPU 0 instructions: 170000001 cycles: 60472265 heartbeat IPC: 2.392 cumulative IPC: 2.501 (Simulation time: 01 hr 11 min 07 sec)
Heartbeat CPU 0 instructions: 180000001 cycles: 63937266 heartbeat IPC: 2.886 cumulative IPC: 2.527 (Simulation time: 01 hr 15 min 26 sec)
Heartbeat CPU 0 instructions: 190000002 cycles: 67527991 heartbeat IPC: 2.785 cumulative IPC: 2.544 (Simulation time: 01 hr 19 min 50 sec)
Heartbeat CPU 0 instructions: 200000002 cycles: 71313371 heartbeat IPC: 2.642 cumulative IPC: 2.55 (Simulation time: 01 hr 24 min 17 sec)
Heartbeat CPU 0 instructions: 210000000 cycles: 74955304 heartbeat IPC: 2.746 cumulative IPC: 2.562 (Simulation time: 01 hr 28 min 37 sec)
Heartbeat CPU 0 instructions: 220000001 cycles: 78829096 heartbeat IPC: 2.581 cumulative IPC: 2.563 (Simulation time: 01 hr 33 min 06 sec)
Heartbeat CPU 0 instructions: 230000002 cycles: 82672692 heartbeat IPC: 2.602 cumulative IPC: 2.565 (Simulation time: 01 hr 37 min 35 sec)
Heartbeat CPU 0 instructions: 240000001 cycles: 86884508 heartbeat IPC: 2.374 cumulative IPC: 2.554 (Simulation time: 01 hr 42 min 16 sec)
Heartbeat CPU 0 instructions: 250000003 cycles: 91457630 heartbeat IPC: 2.187 cumulative IPC: 2.533 (Simulation time: 01 hr 47 min 05 sec)
Heartbeat CPU 0 instructions: 260000000 cycles: 95254458 heartbeat IPC: 2.634 cumulative IPC: 2.538 (Simulation time: 01 hr 51 min 34 sec)
Heartbeat CPU 0 instructions: 270000003 cycles: 102379693 heartbeat IPC: 1.403 cumulative IPC: 2.448 (Simulation time: 01 hr 58 min 08 sec)
Heartbeat CPU 0 instructions: 280000000 cycles: 112926890 heartbeat IPC: 0.9481 cumulative IPC: 2.29 (Simulation time: 02 hr 06 min 58 sec)
Heartbeat CPU 0 instructions: 290000000 cycles: 122213793 heartbeat IPC: 1.077 cumulative IPC: 2.188 (Simulation time: 02 hr 15 min 04 sec)
Heartbeat CPU 0 instructions: 300000003 cycles: 129439218 heartbeat IPC: 1.384 cumulative IPC: 2.138 (Simulation time: 02 hr 21 min 38 sec)
Heartbeat CPU 0 instructions: 310000004 cycles: 139502410 heartbeat IPC: 0.9937 cumulative IPC: 2.047 (Simulation time: 02 hr 30 min 03 sec)
Heartbeat CPU 0 instructions: 320000004 cycles: 144430000 heartbeat IPC: 2.029 cumulative IPC: 2.047 (Simulation time: 02 hr 35 min 23 sec)
Heartbeat CPU 0 instructions: 330000000 cycles: 148430010 heartbeat IPC: 2.5 cumulative IPC: 2.06 (Simulation time: 02 hr 40 min 02 sec)
Heartbeat CPU 0 instructions: 340000001 cycles: 152278789 heartbeat IPC: 2.598 cumulative IPC: 2.075 (Simulation time: 02 hr 44 min 33 sec)
Heartbeat CPU 0 instructions: 350000004 cycles: 156242006 heartbeat IPC: 2.523 cumulative IPC: 2.087 (Simulation time: 02 hr 49 min 10 sec)
Heartbeat CPU 0 instructions: 360000003 cycles: 159938186 heartbeat IPC: 2.705 cumulative IPC: 2.103 (Simulation time: 02 hr 53 min 38 sec)
Heartbeat CPU 0 instructions: 370000001 cycles: 163629441 heartbeat IPC: 2.709 cumulative IPC: 2.117 (Simulation time: 02 hr 58 min 05 sec)
Heartbeat CPU 0 instructions: 380000004 cycles: 167186210 heartbeat IPC: 2.812 cumulative IPC: 2.133 (Simulation time: 03 hr 02 min 30 sec)
Heartbeat CPU 0 instructions: 390000002 cycles: 170790041 heartbeat IPC: 2.775 cumulative IPC: 2.148 (Simulation time: 03 hr 06 min 58 sec)
Heartbeat CPU 0 instructions: 400000000 cycles: 174665689 heartbeat IPC: 2.58 cumulative IPC: 2.158 (Simulation time: 03 hr 11 min 34 sec)
Heartbeat CPU 0 instructions: 410000000 cycles: 180263817 heartbeat IPC: 1.786 cumulative IPC: 2.146 (Simulation time: 03 hr 17 min 19 sec)
Heartbeat CPU 0 instructions: 420000003 cycles: 187440789 heartbeat IPC: 1.393 cumulative IPC: 2.115 (Simulation time: 03 hr 24 min 08 sec)
Heartbeat CPU 0 instructions: 430000000 cycles: 193956898 heartbeat IPC: 1.535 cumulative IPC: 2.094 (Simulation time: 03 hr 30 min 44 sec)
Heartbeat CPU 0 instructions: 440000004 cycles: 199992066 heartbeat IPC: 1.657 cumulative IPC: 2.08 (Simulation time: 03 hr 36 min 55 sec)
Heartbeat CPU 0 instructions: 450000001 cycles: 206279971 heartbeat IPC: 1.59 cumulative IPC: 2.064 (Simulation time: 03 hr 43 min 17 sec)
Heartbeat CPU 0 instructions: 460000002 cycles: 213812453 heartbeat IPC: 1.328 cumulative IPC: 2.037 (Simulation time: 03 hr 50 min 26 sec)
Heartbeat CPU 0 instructions: 470000003 cycles: 219856455 heartbeat IPC: 1.655 cumulative IPC: 2.025 (Simulation time: 03 hr 56 min 38 sec)
Heartbeat CPU 0 instructions: 480000003 cycles: 223611050 heartbeat IPC: 2.663 cumulative IPC: 2.037 (Simulation time: 04 hr 01 min 07 sec)
Heartbeat CPU 0 instructions: 490000001 cycles: 227600629 heartbeat IPC: 2.507 cumulative IPC: 2.046 (Simulation time: 04 hr 05 min 49 sec)
Heartbeat CPU 0 instructions: 500000002 cycles: 231424728 heartbeat IPC: 2.615 cumulative IPC: 2.056 (Simulation time: 04 hr 10 min 22 sec)
Heartbeat CPU 0 instructions: 510000000 cycles: 235101637 heartbeat IPC: 2.72 cumulative IPC: 2.066 (Simulation time: 04 hr 14 min 53 sec)
Heartbeat CPU 0 instructions: 520000000 cycles: 238906916 heartbeat IPC: 2.628 cumulative IPC: 2.076 (Simulation time: 04 hr 19 min 27 sec)
Heartbeat CPU 0 instructions: 530000001 cycles: 246229688 heartbeat IPC: 1.366 cumulative IPC: 2.054 (Simulation time: 04 hr 26 min 32 sec)
Heartbeat CPU 0 instructions: 540000000 cycles: 253391984 heartbeat IPC: 1.396 cumulative IPC: 2.034 (Simulation time: 04 hr 33 min 28 sec)
Heartbeat CPU 0 instructions: 550000004 cycles: 260626496 heartbeat IPC: 1.382 cumulative IPC: 2.015 (Simulation time: 04 hr 40 min 29 sec)
Heartbeat CPU 0 instructions: 560000004 cycles: 264403135 heartbeat IPC: 2.648 cumulative IPC: 2.025 (Simulation time: 04 hr 45 min 03 sec)
Heartbeat CPU 0 instructions: 570000001 cycles: 267474396 heartbeat IPC: 3.256 cumulative IPC: 2.039 (Simulation time: 04 hr 49 min 18 sec)
Heartbeat CPU 0 instructions: 580000003 cycles: 270922089 heartbeat IPC: 2.9 cumulative IPC: 2.051 (Simulation time: 04 hr 53 min 38 sec)
Heartbeat CPU 0 instructions: 590000002 cycles: 274447072 heartbeat IPC: 2.837 cumulative IPC: 2.061 (Simulation time: 04 hr 58 min 03 sec)
Heartbeat CPU 0 instructions: 600000003 cycles: 277461405 heartbeat IPC: 3.317 cumulative IPC: 2.076 (Simulation time: 05 hr 02 min 26 sec)
Heartbeat CPU 0 instructions: 610000001 cycles: 280899694 heartbeat IPC: 2.908 cumulative IPC: 2.086 (Simulation time: 05 hr 06 min 52 sec)
Heartbeat CPU 0 instructions: 620000000 cycles: 284859219 heartbeat IPC: 2.526 cumulative IPC: 2.093 (Simulation time: 05 hr 11 min 33 sec)
Heartbeat CPU 0 instructions: 630000002 cycles: 288186042 heartbeat IPC: 3.006 cumulative IPC: 2.104 (Simulation time: 05 hr 16 min 01 sec)
Heartbeat CPU 0 instructions: 640000004 cycles: 292148286 heartbeat IPC: 2.524 cumulative IPC: 2.11 (Simulation time: 05 hr 20 min 45 sec)
Heartbeat CPU 0 instructions: 650000001 cycles: 295951533 heartbeat IPC: 2.629 cumulative IPC: 2.117 (Simulation time: 05 hr 25 min 18 sec)
Simulation finished CPU 0 instructions: 600000001 cycles: 283451472 cumulative IPC: 2.117 (Simulation time: 05 hr 25 min 18 sec)
Simulation complete CPU 0 instructions: 600000001 cycles: 283451472 cumulative IPC: 2.117 (Simulation time: 05 hr 25 min 18 sec)

ChampSim completed all CPUs

=== Simulation ===
CPU 0 runs traces/400.perlbench-50B.champsimtrace.xz
Region of Interest Statistics

CPU 0 cumulative IPC: 2.117 instructions: 600000001 cycles: 283451472
CPU 0 Branch Prediction Accuracy: 96.2% MPKI: 7.839 Average ROB Occupancy at Mispredict: 43.17
Branch type MPKI
BRANCH_DIRECT_JUMP: 0.0176
BRANCH_INDIRECT: 0.38
BRANCH_CONDITIONAL: 6.99
BRANCH_DIRECT_CALL: 0.0067
BRANCH_INDIRECT_CALL: 0.431
BRANCH_RETURN: 0.0161

LLC TOTAL        ACCESS:     783873 HIT:     658418 MISS:     125455
LLC LOAD         ACCESS:     585976 HIT:     479565 MISS:     106411
LLC RFO          ACCESS:      47518 HIT:      37654 MISS:       9864
LLC PREFETCH     ACCESS:          0 HIT:          0 MISS:          0
LLC WRITE        ACCESS:     128449 HIT:     128436 MISS:         13
LLC TRANSLATION  ACCESS:      21930 HIT:      12763 MISS:       9167
LLC PREFETCH REQUESTED:          0 ISSUED:          0 USEFUL:          0 USELESS:          0
LLC AVERAGE MISS LATENCY: 467.8 cycles
cpu0_DTLB TOTAL        ACCESS:  146514684 HIT:  145209802 MISS:    1304882
cpu0_DTLB LOAD         ACCESS:  146514684 HIT:  145209802 MISS:    1304882
cpu0_DTLB RFO          ACCESS:          0 HIT:          0 MISS:          0
cpu0_DTLB PREFETCH     ACCESS:          0 HIT:          0 MISS:          0
cpu0_DTLB WRITE        ACCESS:          0 HIT:          0 MISS:          0
cpu0_DTLB TRANSLATION  ACCESS:          0 HIT:          0 MISS:          0
cpu0_DTLB PREFETCH REQUESTED:          0 ISSUED:          0 USEFUL:          0 USELESS:          0
cpu0_DTLB AVERAGE MISS LATENCY: 9.833 cycles
cpu0_ITLB TOTAL        ACCESS:    8985241 HIT:    8800663 MISS:     184578
cpu0_ITLB LOAD         ACCESS:    8985241 HIT:    8800663 MISS:     184578
cpu0_ITLB RFO          ACCESS:          0 HIT:          0 MISS:          0
cpu0_ITLB PREFETCH     ACCESS:          0 HIT:          0 MISS:          0
cpu0_ITLB WRITE        ACCESS:          0 HIT:          0 MISS:          0
cpu0_ITLB TRANSLATION  ACCESS:          0 HIT:          0 MISS:          0
cpu0_ITLB PREFETCH REQUESTED:          0 ISSUED:          0 USEFUL:          0 USELESS:          0
cpu0_ITLB AVERAGE MISS LATENCY: 2.917 cycles
cpu0_L1D TOTAL        ACCESS:  193307225 HIT:  189676318 MISS:    3630907
cpu0_L1D LOAD         ACCESS:  107462169 HIT:  104466733 MISS:    2995436
cpu0_L1D RFO          ACCESS:          0 HIT:          0 MISS:          0
cpu0_L1D PREFETCH     ACCESS:          0 HIT:          0 MISS:          0
cpu0_L1D WRITE        ACCESS:   85816531 HIT:   85208157 MISS:     608374
cpu0_L1D TRANSLATION  ACCESS:      28525 HIT:       1428 MISS:      27097
cpu0_L1D PREFETCH REQUESTED:          0 ISSUED:          0 USEFUL:          0 USELESS:          0
cpu0_L1D AVERAGE MISS LATENCY: 22.77 cycles
cpu0_L1I TOTAL        ACCESS:   10419681 HIT:    8657803 MISS:    1761878
cpu0_L1I LOAD         ACCESS:   10419681 HIT:    8657803 MISS:    1761878
cpu0_L1I RFO          ACCESS:          0 HIT:          0 MISS:          0
cpu0_L1I PREFETCH     ACCESS:          0 HIT:          0 MISS:          0
cpu0_L1I WRITE        ACCESS:          0 HIT:          0 MISS:          0
cpu0_L1I TRANSLATION  ACCESS:          0 HIT:          0 MISS:          0
cpu0_L1I PREFETCH REQUESTED:          0 ISSUED:          0 USEFUL:          0 USELESS:          0
cpu0_L1I AVERAGE MISS LATENCY: 9.459 cycles
cpu0_L2C TOTAL        ACCESS:    3834837 HIT:    3176190 MISS:     658647
cpu0_L2C LOAD         ACCESS:    3105027 HIT:    2519051 MISS:     585976
cpu0_L2C RFO          ACCESS:     191517 HIT:     143999 MISS:      47518
cpu0_L2C PREFETCH     ACCESS:          0 HIT:          0 MISS:          0
cpu0_L2C WRITE        ACCESS:     511262 HIT:     508039 MISS:       3223
cpu0_L2C TRANSLATION  ACCESS:      27031 HIT:       5101 MISS:      21930
cpu0_L2C PREFETCH REQUESTED:          0 ISSUED:          0 USEFUL:          0 USELESS:          0
cpu0_L2C AVERAGE MISS LATENCY: 109.2 cycles
cpu0_STLB TOTAL        ACCESS:    1008479 HIT:     981784 MISS:      26695
cpu0_STLB LOAD         ACCESS:    1008479 HIT:     981784 MISS:      26695
cpu0_STLB RFO          ACCESS:          0 HIT:          0 MISS:          0
cpu0_STLB PREFETCH     ACCESS:          0 HIT:          0 MISS:          0
cpu0_STLB WRITE        ACCESS:          0 HIT:          0 MISS:          0
cpu0_STLB TRANSLATION  ACCESS:          0 HIT:          0 MISS:          0
cpu0_STLB PREFETCH REQUESTED:          0 ISSUED:          0 USEFUL:          0 USELESS:          0
cpu0_STLB AVERAGE MISS LATENCY: 253.9 cycles

DRAM Statistics

Channel 0 RQ ROW_BUFFER_HIT:      37726
  ROW_BUFFER_MISS:      87714
 AVG DBUS CONGESTED CYCLE: 3.7
WQ ROW_BUFFER_HIT: Channel 0 
  ROW_BUFFER_MISS:       1333
  FULL:       1739
