WARNING: physical memory size is smaller than virtual memory size.

*** ChampSim Multicore Out-of-Order Simulator ***
Warmup Instructions: 50000000
Simulation Instructions: 600000000
Number of CPUs: 1
Page size: 4096

Off-chip DRAM Size: 4 GiB Channels: 1 Width: 64-bit Data Race: 3200 MT/s
Heartbeat CPU 0 instructions: 10000000 cycles: 2500061 heartbeat IPC: 4 cumulative IPC: 4 (Simulation time: 00 hr 03 min 34 sec)
Heartbeat CPU 0 instructions: 20000000 cycles: 5000061 heartbeat IPC: 4 cumulative IPC: 4 (Simulation time: 00 hr 07 min 05 sec)
Heartbeat CPU 0 instructions: 30000000 cycles: 7500061 heartbeat IPC: 4 cumulative IPC: 4 (Simulation time: 00 hr 10 min 35 sec)
Heartbeat CPU 0 instructions: 40000000 cycles: 10000061 heartbeat IPC: 4 cumulative IPC: 4 (Simulation time: 00 hr 14 min 05 sec)
Heartbeat CPU 0 instructions: 50000000 cycles: 12500061 heartbeat IPC: 4 cumulative IPC: 4 (Simulation time: 00 hr 17 min 36 sec)
Warmup finished CPU 0 instructions: 50000000 cycles: 12500062 cumulative IPC: 4 (Simulation time: 00 hr 17 min 36 sec)
Warmup complete CPU 0 instructions: 50000000 cycles: 12500062 cumulative IPC: 4 (Simulation time: 00 hr 17 min 36 sec)
Heartbeat CPU 0 instructions: 60000004 cycles: 15566965 heartbeat IPC: 3.261 cumulative IPC: 3.261 (Simulation time: 00 hr 22 min 07 sec)
Heartbeat CPU 0 instructions: 70000003 cycles: 18653488 heartbeat IPC: 3.24 cumulative IPC: 3.25 (Simulation time: 00 hr 26 min 25 sec)
Heartbeat CPU 0 instructions: 80000001 cycles: 21827802 heartbeat IPC: 3.15 cumulative IPC: 3.216 (Simulation time: 00 hr 30 min 44 sec)
Heartbeat CPU 0 instructions: 90000000 cycles: 24604261 heartbeat IPC: 3.602 cumulative IPC: 3.305 (Simulation time: 00 hr 34 min 54 sec)
Heartbeat CPU 0 instructions: 100000003 cycles: 27519692 heartbeat IPC: 3.43 cumulative IPC: 3.329 (Simulation time: 00 hr 39 min 09 sec)
Heartbeat CPU 0 instructions: 110000000 cycles: 30557649 heartbeat IPC: 3.292 cumulative IPC: 3.323 (Simulation time: 00 hr 43 min 25 sec)
Heartbeat CPU 0 instructions: 120000001 cycles: 33393880 heartbeat IPC: 3.526 cumulative IPC: 3.35 (Simulation time: 00 hr 47 min 33 sec)
Heartbeat CPU 0 instructions: 130000003 cycles: 36369930 heartbeat IPC: 3.36 cumulative IPC: 3.352 (Simulation time: 00 hr 51 min 47 sec)
Heartbeat CPU 0 instructions: 140000002 cycles: 39346320 heartbeat IPC: 3.36 cumulative IPC: 3.352 (Simulation time: 00 hr 55 min 59 sec)
Heartbeat CPU 0 instructions: 150000001 cycles: 42260273 heartbeat IPC: 3.432 cumulative IPC: 3.36 (Simulation time: 01 hr 00 min 12 sec)
Heartbeat CPU 0 instructions: 160000000 cycles: 45242127 heartbeat IPC: 3.354 cumulative IPC: 3.36 (Simulation time: 01 hr 04 min 27 sec)
Heartbeat CPU 0 instructions: 170000001 cycles: 48289159 heartbeat IPC: 3.282 cumulative IPC: 3.353 (Simulation time: 01 hr 08 min 44 sec)
Heartbeat CPU 0 instructions: 180000000 cycles: 51143030 heartbeat IPC: 3.504 cumulative IPC: 3.364 (Simulation time: 01 hr 13 min 00 sec)
Heartbeat CPU 0 instructions: 190000002 cycles: 53959877 heartbeat IPC: 3.55 cumulative IPC: 3.377 (Simulation time: 01 hr 17 min 15 sec)
Heartbeat CPU 0 instructions: 200000002 cycles: 56921437 heartbeat IPC: 3.377 cumulative IPC: 3.377 (Simulation time: 01 hr 21 min 30 sec)
Heartbeat CPU 0 instructions: 210000000 cycles: 59883744 heartbeat IPC: 3.376 cumulative IPC: 3.377 (Simulation time: 01 hr 25 min 46 sec)
Heartbeat CPU 0 instructions: 220000001 cycles: 62781620 heartbeat IPC: 3.451 cumulative IPC: 3.381 (Simulation time: 01 hr 29 min 57 sec)
Heartbeat CPU 0 instructions: 230000002 cycles: 65787768 heartbeat IPC: 3.327 cumulative IPC: 3.378 (Simulation time: 01 hr 34 min 15 sec)
Heartbeat CPU 0 instructions: 240000004 cycles: 68888869 heartbeat IPC: 3.225 cumulative IPC: 3.369 (Simulation time: 01 hr 38 min 36 sec)
Heartbeat CPU 0 instructions: 250000003 cycles: 72025715 heartbeat IPC: 3.188 cumulative IPC: 3.36 (Simulation time: 01 hr 43 min 02 sec)
Heartbeat CPU 0 instructions: 260000000 cycles: 74921049 heartbeat IPC: 3.454 cumulative IPC: 3.364 (Simulation time: 01 hr 47 min 19 sec)
Heartbeat CPU 0 instructions: 270000002 cycles: 80578695 heartbeat IPC: 1.768 cumulative IPC: 3.232 (Simulation time: 01 hr 53 min 20 sec)
Heartbeat CPU 0 instructions: 280000000 cycles: 88710076 heartbeat IPC: 1.23 cumulative IPC: 3.018 (Simulation time: 02 hr 01 min 21 sec)
Heartbeat CPU 0 instructions: 290000000 cycles: 95442654 heartbeat IPC: 1.485 cumulative IPC: 2.894 (Simulation time: 02 hr 08 min 27 sec)
Heartbeat CPU 0 instructions: 300000003 cycles: 100514641 heartbeat IPC: 1.972 cumulative IPC: 2.84 (Simulation time: 02 hr 14 min 38 sec)
Heartbeat CPU 0 instructions: 310000004 cycles: 107961211 heartbeat IPC: 1.343 cumulative IPC: 2.724 (Simulation time: 02 hr 22 min 21 sec)
Heartbeat CPU 0 instructions: 320000004 cycles: 111693254 heartbeat IPC: 2.679 cumulative IPC: 2.722 (Simulation time: 02 hr 27 min 38 sec)
Heartbeat CPU 0 instructions: 330000000 cycles: 114904468 heartbeat IPC: 3.114 cumulative IPC: 2.734 (Simulation time: 02 hr 32 min 12 sec)
Heartbeat CPU 0 instructions: 340000001 cycles: 117860766 heartbeat IPC: 3.383 cumulative IPC: 2.752 (Simulation time: 02 hr 36 min 33 sec)
Heartbeat CPU 0 instructions: 350000000 cycles: 120972239 heartbeat IPC: 3.214 cumulative IPC: 2.766 (Simulation time: 02 hr 41 min 02 sec)
Heartbeat CPU 0 instructions: 360000003 cycles: 123893302 heartbeat IPC: 3.423 cumulative IPC: 2.783 (Simulation time: 02 hr 45 min 23 sec)
Heartbeat CPU 0 instructions: 370000001 cycles: 126792245 heartbeat IPC: 3.45 cumulative IPC: 2.8 (Simulation time: 02 hr 49 min 43 sec)
Heartbeat CPU 0 instructions: 380000004 cycles: 129715023 heartbeat IPC: 3.421 cumulative IPC: 2.815 (Simulation time: 02 hr 54 min 05 sec)
Heartbeat CPU 0 instructions: 390000002 cycles: 132647175 heartbeat IPC: 3.41 cumulative IPC: 2.83 (Simulation time: 02 hr 58 min 26 sec)
Heartbeat CPU 0 instructions: 400000000 cycles: 135669781 heartbeat IPC: 3.308 cumulative IPC: 2.842 (Simulation time: 03 hr 02 min 51 sec)
Heartbeat CPU 0 instructions: 410000000 cycles: 139910386 heartbeat IPC: 2.358 cumulative IPC: 2.826 (Simulation time: 03 hr 08 min 18 sec)
Heartbeat CPU 0 instructions: 420000003 cycles: 144968410 heartbeat IPC: 1.977 cumulative IPC: 2.793 (Simulation time: 03 hr 14 min 16 sec)
Heartbeat CPU 0 instructions: 430000000 cycles: 149485254 heartbeat IPC: 2.214 cumulative IPC: 2.774 (Simulation time: 03 hr 20 min 04 sec)
Heartbeat CPU 0 instructions: 440000004 cycles: 153785622 heartbeat IPC: 2.325 cumulative IPC: 2.76 (Simulation time: 03 hr 25 min 38 sec)
Heartbeat CPU 0 instructions: 450000001 cycles: 158148736 heartbeat IPC: 2.292 cumulative IPC: 2.746 (Simulation time: 03 hr 31 min 12 sec)
Heartbeat CPU 0 instructions: 460000002 cycles: 163563186 heartbeat IPC: 1.847 cumulative IPC: 2.714 (Simulation time: 03 hr 37 min 29 sec)
Heartbeat CPU 0 instructions: 470000003 cycles: 168334358 heartbeat IPC: 2.096 cumulative IPC: 2.695 (Simulation time: 03 hr 43 min 18 sec)
Heartbeat CPU 0 instructions: 480000000 cycles: 171439420 heartbeat IPC: 3.221 cumulative IPC: 2.705 (Simulation time: 03 hr 47 min 49 sec)
Heartbeat CPU 0 instructions: 490000001 cycles: 174587122 heartbeat IPC: 3.177 cumulative IPC: 2.715 (Simulation time: 03 hr 52 min 18 sec)
Heartbeat CPU 0 instructions: 500000002 cycles: 177619890 heartbeat IPC: 3.297 cumulative IPC: 2.725 (Simulation time: 03 hr 56 min 42 sec)
Heartbeat CPU 0 instructions: 510000000 cycles: 180628900 heartbeat IPC: 3.323 cumulative IPC: 2.736 (Simulation time: 04 hr 01 min 09 sec)
Heartbeat CPU 0 instructions: 520000000 cycles: 183638179 heartbeat IPC: 3.323 cumulative IPC: 2.746 (Simulation time: 04 hr 05 min 33 sec)
Heartbeat CPU 0 instructions: 530000001 cycles: 188602207 heartbeat IPC: 2.014 cumulative IPC: 2.726 (Simulation time: 04 hr 11 min 25 sec)
Heartbeat CPU 0 instructions: 540000000 cycles: 193544624 heartbeat IPC: 2.023 cumulative IPC: 2.707 (Simulation time: 04 hr 17 min 22 sec)
Heartbeat CPU 0 instructions: 550000004 cycles: 199121368 heartbeat IPC: 1.793 cumulative IPC: 2.679 (Simulation time: 04 hr 23 min 41 sec)
Heartbeat CPU 0 instructions: 560000004 cycles: 202339396 heartbeat IPC: 3.107 cumulative IPC: 2.686 (Simulation time: 04 hr 28 min 09 sec)
Heartbeat CPU 0 instructions: 570000002 cycles: 205143047 heartbeat IPC: 3.567 cumulative IPC: 2.699 (Simulation time: 04 hr 32 min 24 sec)
Heartbeat CPU 0 instructions: 580000000 cycles: 208065882 heartbeat IPC: 3.421 cumulative IPC: 2.71 (Simulation time: 04 hr 36 min 39 sec)
Heartbeat CPU 0 instructions: 590000001 cycles: 210988832 heartbeat IPC: 3.421 cumulative IPC: 2.721 (Simulation time: 04 hr 40 min 56 sec)
Heartbeat CPU 0 instructions: 600000003 cycles: 213695202 heartbeat IPC: 3.695 cumulative IPC: 2.734 (Simulation time: 04 hr 45 min 13 sec)
Heartbeat CPU 0 instructions: 610000001 cycles: 216598775 heartbeat IPC: 3.444 cumulative IPC: 2.744 (Simulation time: 04 hr 49 min 32 sec)
Heartbeat CPU 0 instructions: 620000002 cycles: 219590858 heartbeat IPC: 3.342 cumulative IPC: 2.752 (Simulation time: 04 hr 54 min 07 sec)
Heartbeat CPU 0 instructions: 630000002 cycles: 222447772 heartbeat IPC: 3.5 cumulative IPC: 2.763 (Simulation time: 04 hr 58 min 25 sec)
Heartbeat CPU 0 instructions: 640000004 cycles: 225498047 heartbeat IPC: 3.278 cumulative IPC: 2.77 (Simulation time: 05 hr 02 min 55 sec)
Heartbeat CPU 0 instructions: 650000001 cycles: 228241976 heartbeat IPC: 3.644 cumulative IPC: 2.781 (Simulation time: 05 hr 06 min 49 sec)
Simulation finished CPU 0 instructions: 600000001 cycles: 215741915 cumulative IPC: 2.781 (Simulation time: 05 hr 06 min 49 sec)
Simulation complete CPU 0 instructions: 600000001 cycles: 215741915 cumulative IPC: 2.781 (Simulation time: 05 hr 06 min 49 sec)

ChampSim completed all CPUs

=== Simulation ===
CPU 0 runs traces/400.perlbench-50B.champsimtrace.xz
Region of Interest Statistics

CPU 0 cumulative IPC: 2.781 instructions: 600000001 cycles: 215741915
CPU 0 Branch Prediction Accuracy: 98.73% MPKI: 2.62 Average ROB Occupancy at Mispredict: 85.11
Branch type MPKI
BRANCH_DIRECT_JUMP: 0.0176
BRANCH_INDIRECT: 0.38
BRANCH_CONDITIONAL: 1.77
BRANCH_DIRECT_CALL: 0.0067
BRANCH_INDIRECT_CALL: 0.431
BRANCH_RETURN: 0.0161

LLC TOTAL        ACCESS:    1357781 HIT:    1166845 MISS:     190936
LLC LOAD         ACCESS:     580675 HIT:     497618 MISS:      83057
LLC RFO          ACCESS:      46689 HIT:      37104 MISS:       9585
LLC PREFETCH     ACCESS:     580675 HIT:     492611 MISS:      88064
LLC WRITE        ACCESS:     127648 HIT:     127122 MISS:        526
LLC TRANSLATION  ACCESS:      22094 HIT:      12390 MISS:       9704
LLC PREFETCH REQUESTED:     580675 ISSUED:     580675 USEFUL:      31969 USELESS:      11467
LLC AVERAGE MISS LATENCY: 524.2 cycles
cpu0_DTLB TOTAL        ACCESS:  134645796 HIT:  133294215 MISS:    1351581
cpu0_DTLB LOAD         ACCESS:  134645796 HIT:  133294215 MISS:    1351581
cpu0_DTLB RFO          ACCESS:          0 HIT:          0 MISS:          0
cpu0_DTLB PREFETCH     ACCESS:          0 HIT:          0 MISS:          0
cpu0_DTLB WRITE        ACCESS:          0 HIT:          0 MISS:          0
cpu0_DTLB TRANSLATION  ACCESS:          0 HIT:          0 MISS:          0
cpu0_DTLB PREFETCH REQUESTED:          0 ISSUED:          0 USEFUL:          0 USELESS:          0
cpu0_DTLB AVERAGE MISS LATENCY: 9.849 cycles
cpu0_ITLB TOTAL        ACCESS:    8967119 HIT:    8759936 MISS:     207183
cpu0_ITLB LOAD         ACCESS:    8967119 HIT:    8759936 MISS:     207183
cpu0_ITLB RFO          ACCESS:          0 HIT:          0 MISS:          0
cpu0_ITLB PREFETCH     ACCESS:          0 HIT:          0 MISS:          0
cpu0_ITLB WRITE        ACCESS:          0 HIT:          0 MISS:          0
cpu0_ITLB TRANSLATION  ACCESS:          0 HIT:          0 MISS:          0
cpu0_ITLB PREFETCH REQUESTED:          0 ISSUED:          0 USEFUL:          0 USELESS:          0
cpu0_ITLB AVERAGE MISS LATENCY: 2.339 cycles
cpu0_L1D TOTAL        ACCESS:  180725446 HIT:  176982489 MISS:    3742957
cpu0_L1D LOAD         ACCESS:   95169012 HIT:   92091652 MISS:    3077360
cpu0_L1D RFO          ACCESS:          0 HIT:          0 MISS:          0
cpu0_L1D PREFETCH     ACCESS:          0 HIT:          0 MISS:          0
cpu0_L1D WRITE        ACCESS:   85527911 HIT:   84889411 MISS:     638500
cpu0_L1D TRANSLATION  ACCESS:      28523 HIT:       1426 MISS:      27097
cpu0_L1D PREFETCH REQUESTED:          0 ISSUED:          0 USEFUL:          0 USELESS:          0
cpu0_L1D AVERAGE MISS LATENCY: 21.94 cycles
cpu0_L1I TOTAL        ACCESS:   10482819 HIT:    8594380 MISS:    1888439
cpu0_L1I LOAD         ACCESS:   10482819 HIT:    8594380 MISS:    1888439
cpu0_L1I RFO          ACCESS:          0 HIT:          0 MISS:          0
cpu0_L1I PREFETCH     ACCESS:          0 HIT:          0 MISS:          0
cpu0_L1I WRITE        ACCESS:          0 HIT:          0 MISS:          0
cpu0_L1I TRANSLATION  ACCESS:          0 HIT:          0 MISS:          0
cpu0_L1I PREFETCH REQUESTED:          0 ISSUED:          0 USEFUL:          0 USELESS:          0
cpu0_L1I AVERAGE MISS LATENCY: 8.234 cycles
cpu0_L2C TOTAL        ACCESS:    3840206 HIT:    3187909 MISS:     652297
cpu0_L2C LOAD         ACCESS:    3104521 HIT:    2523845 MISS:     580676
cpu0_L2C RFO          ACCESS:     194365 HIT:     147676 MISS:      46689
cpu0_L2C PREFETCH     ACCESS:          0 HIT:          0 MISS:          0
cpu0_L2C WRITE        ACCESS:     514304 HIT:     511466 MISS:       2838
cpu0_L2C TRANSLATION  ACCESS:      27016 HIT:       4922 MISS:      22094
cpu0_L2C PREFETCH REQUESTED:          0 ISSUED:          0 USEFUL:          0 USELESS:          0
cpu0_L2C AVERAGE MISS LATENCY: 111.3 cycles
cpu0_STLB TOTAL        ACCESS:    1009438 HIT:     982749 MISS:      26689
cpu0_STLB LOAD         ACCESS:    1009438 HIT:     982749 MISS:      26689
cpu0_STLB RFO          ACCESS:          0 HIT:          0 MISS:          0
cpu0_STLB PREFETCH     ACCESS:          0 HIT:          0 MISS:          0
cpu0_STLB WRITE        ACCESS:          0 HIT:          0 MISS:          0
cpu0_STLB TRANSLATION  ACCESS:          0 HIT:          0 MISS:          0
cpu0_STLB PREFETCH REQUESTED:          0 ISSUED:          0 USEFUL:          0 USELESS:          0
cpu0_STLB AVERAGE MISS LATENCY: 283.2 cycles

DRAM Statistics

Channel 0 RQ ROW_BUFFER_HIT:      44796
  ROW_BUFFER_MISS:     113546
 AVG DBUS CONGESTED CYCLE: 3.844
WQ ROW_BUFFER_HIT: Channel 0 
  ROW_BUFFER_MISS:       1760
  FULL:       3019
