WARNING: physical memory size is smaller than virtual memory size.

*** ChampSim Multicore Out-of-Order Simulator ***
Warmup Instructions: 50000000
Simulation Instructions: 600000000
Number of CPUs: 1
Page size: 4096

Off-chip DRAM Size: 4 GiB Channels: 1 Width: 64-bit Data Race: 3200 MT/s
Heartbeat CPU 0 instructions: 10000000 cycles: 2500061 heartbeat IPC: 4 cumulative IPC: 4 (Simulation time: 00 hr 00 min 50 sec)
Heartbeat CPU 0 instructions: 20000000 cycles: 5000061 heartbeat IPC: 4 cumulative IPC: 4 (Simulation time: 00 hr 01 min 53 sec)
Heartbeat CPU 0 instructions: 30000000 cycles: 7500061 heartbeat IPC: 4 cumulative IPC: 4 (Simulation time: 00 hr 02 min 42 sec)
Heartbeat CPU 0 instructions: 40000000 cycles: 10000061 heartbeat IPC: 4 cumulative IPC: 4 (Simulation time: 00 hr 03 min 32 sec)
Heartbeat CPU 0 instructions: 50000000 cycles: 12500061 heartbeat IPC: 4 cumulative IPC: 4 (Simulation time: 00 hr 04 min 22 sec)
Warmup finished CPU 0 instructions: 50000000 cycles: 12500062 cumulative IPC: 4 (Simulation time: 00 hr 04 min 22 sec)
Warmup complete CPU 0 instructions: 50000000 cycles: 12500062 cumulative IPC: 4 (Simulation time: 00 hr 04 min 22 sec)
Heartbeat CPU 0 instructions: 60000002 cycles: 16446623 heartbeat IPC: 2.534 cumulative IPC: 2.534 (Simulation time: 00 hr 05 min 31 sec)
Heartbeat CPU 0 instructions: 70000003 cycles: 20770663 heartbeat IPC: 2.313 cumulative IPC: 2.418 (Simulation time: 00 hr 06 min 43 sec)
Heartbeat CPU 0 instructions: 80000003 cycles: 25247437 heartbeat IPC: 2.234 cumulative IPC: 2.353 (Simulation time: 00 hr 07 min 55 sec)
Heartbeat CPU 0 instructions: 90000000 cycles: 28939876 heartbeat IPC: 2.708 cumulative IPC: 2.433 (Simulation time: 00 hr 09 min 02 sec)
Heartbeat CPU 0 instructions: 100000003 cycles: 32843908 heartbeat IPC: 2.561 cumulative IPC: 2.458 (Simulation time: 00 hr 10 min 10 sec)
Heartbeat CPU 0 instructions: 110000002 cycles: 36950135 heartbeat IPC: 2.435 cumulative IPC: 2.454 (Simulation time: 00 hr 11 min 20 sec)
Heartbeat CPU 0 instructions: 120000001 cycles: 40668359 heartbeat IPC: 2.689 cumulative IPC: 2.485 (Simulation time: 00 hr 12 min 26 sec)
Heartbeat CPU 0 instructions: 130000003 cycles: 44444328 heartbeat IPC: 2.648 cumulative IPC: 2.504 (Simulation time: 00 hr 13 min 33 sec)
Heartbeat CPU 0 instructions: 140000002 cycles: 48579315 heartbeat IPC: 2.418 cumulative IPC: 2.495 (Simulation time: 00 hr 14 min 43 sec)
Heartbeat CPU 0 instructions: 150000001 cycles: 52632664 heartbeat IPC: 2.467 cumulative IPC: 2.492 (Simulation time: 00 hr 15 min 52 sec)
Heartbeat CPU 0 instructions: 160000000 cycles: 56291651 heartbeat IPC: 2.733 cumulative IPC: 2.512 (Simulation time: 00 hr 16 min 58 sec)
Heartbeat CPU 0 instructions: 170000001 cycles: 60472265 heartbeat IPC: 2.392 cumulative IPC: 2.501 (Simulation time: 00 hr 18 min 08 sec)
Heartbeat CPU 0 instructions: 180000001 cycles: 63937266 heartbeat IPC: 2.886 cumulative IPC: 2.527 (Simulation time: 00 hr 19 min 13 sec)
Heartbeat CPU 0 instructions: 190000002 cycles: 67527991 heartbeat IPC: 2.785 cumulative IPC: 2.544 (Simulation time: 00 hr 20 min 20 sec)
Heartbeat CPU 0 instructions: 200000002 cycles: 71313371 heartbeat IPC: 2.642 cumulative IPC: 2.55 (Simulation time: 00 hr 21 min 27 sec)
Heartbeat CPU 0 instructions: 210000000 cycles: 74955304 heartbeat IPC: 2.746 cumulative IPC: 2.562 (Simulation time: 00 hr 22 min 33 sec)
Heartbeat CPU 0 instructions: 220000001 cycles: 78829096 heartbeat IPC: 2.581 cumulative IPC: 2.563 (Simulation time: 00 hr 23 min 41 sec)
Heartbeat CPU 0 instructions: 230000002 cycles: 82672692 heartbeat IPC: 2.602 cumulative IPC: 2.565 (Simulation time: 00 hr 24 min 49 sec)
Heartbeat CPU 0 instructions: 240000001 cycles: 86884508 heartbeat IPC: 2.374 cumulative IPC: 2.554 (Simulation time: 00 hr 25 min 59 sec)
Heartbeat CPU 0 instructions: 250000003 cycles: 91457630 heartbeat IPC: 2.187 cumulative IPC: 2.533 (Simulation time: 00 hr 27 min 11 sec)
Heartbeat CPU 0 instructions: 260000000 cycles: 95254458 heartbeat IPC: 2.634 cumulative IPC: 2.538 (Simulation time: 00 hr 28 min 18 sec)
Heartbeat CPU 0 instructions: 270000003 cycles: 102379693 heartbeat IPC: 1.403 cumulative IPC: 2.448 (Simulation time: 00 hr 29 min 57 sec)
Heartbeat CPU 0 instructions: 280000000 cycles: 113133810 heartbeat IPC: 0.9299 cumulative IPC: 2.286 (Simulation time: 00 hr 32 min 13 sec)
Heartbeat CPU 0 instructions: 290000000 cycles: 122882677 heartbeat IPC: 1.026 cumulative IPC: 2.174 (Simulation time: 00 hr 34 min 20 sec)
Heartbeat CPU 0 instructions: 300000003 cycles: 130314723 heartbeat IPC: 1.346 cumulative IPC: 2.122 (Simulation time: 00 hr 36 min 07 sec)
Heartbeat CPU 0 instructions: 310000004 cycles: 140942283 heartbeat IPC: 0.9409 cumulative IPC: 2.024 (Simulation time: 00 hr 38 min 25 sec)
Heartbeat CPU 0 instructions: 320000004 cycles: 145985570 heartbeat IPC: 1.983 cumulative IPC: 2.023 (Simulation time: 00 hr 39 min 48 sec)
Heartbeat CPU 0 instructions: 330000000 cycles: 150050726 heartbeat IPC: 2.46 cumulative IPC: 2.036 (Simulation time: 00 hr 40 min 59 sec)
Heartbeat CPU 0 instructions: 340000001 cycles: 154370273 heartbeat IPC: 2.315 cumulative IPC: 2.044 (Simulation time: 00 hr 42 min 12 sec)
Heartbeat CPU 0 instructions: 350000004 cycles: 158829287 heartbeat IPC: 2.243 cumulative IPC: 2.05 (Simulation time: 00 hr 43 min 27 sec)
Heartbeat CPU 0 instructions: 360000003 cycles: 162970417 heartbeat IPC: 2.415 cumulative IPC: 2.06 (Simulation time: 00 hr 44 min 38 sec)
Heartbeat CPU 0 instructions: 370000001 cycles: 166999715 heartbeat IPC: 2.482 cumulative IPC: 2.071 (Simulation time: 00 hr 45 min 49 sec)
Heartbeat CPU 0 instructions: 380000004 cycles: 170882006 heartbeat IPC: 2.576 cumulative IPC: 2.084 (Simulation time: 00 hr 46 min 58 sec)
Heartbeat CPU 0 instructions: 390000002 cycles: 174928250 heartbeat IPC: 2.471 cumulative IPC: 2.093 (Simulation time: 00 hr 48 min 10 sec)
Heartbeat CPU 0 instructions: 400000000 cycles: 179223927 heartbeat IPC: 2.328 cumulative IPC: 2.099 (Simulation time: 00 hr 49 min 23 sec)
Heartbeat CPU 0 instructions: 410000000 cycles: 185953233 heartbeat IPC: 1.486 cumulative IPC: 2.075 (Simulation time: 00 hr 51 min 01 sec)
Heartbeat CPU 0 instructions: 420000003 cycles: 195787555 heartbeat IPC: 1.017 cumulative IPC: 2.019 (Simulation time: 00 hr 53 min 09 sec)
Heartbeat CPU 0 instructions: 430000000 cycles: 203029850 heartbeat IPC: 1.381 cumulative IPC: 1.994 (Simulation time: 00 hr 54 min 56 sec)
Heartbeat CPU 0 instructions: 440000004 cycles: 209601026 heartbeat IPC: 1.522 cumulative IPC: 1.979 (Simulation time: 00 hr 56 min 34 sec)
Heartbeat CPU 0 instructions: 450000001 cycles: 216365927 heartbeat IPC: 1.478 cumulative IPC: 1.962 (Simulation time: 00 hr 58 min 15 sec)
Heartbeat CPU 0 instructions: 460000002 cycles: 226732424 heartbeat IPC: 0.9646 cumulative IPC: 1.914 (Simulation time: 01 hr 00 min 28 sec)
Heartbeat CPU 0 instructions: 470000003 cycles: 235863812 heartbeat IPC: 1.095 cumulative IPC: 1.88 (Simulation time: 01 hr 02 min 32 sec)
Heartbeat CPU 0 instructions: 480000003 cycles: 240103933 heartbeat IPC: 2.358 cumulative IPC: 1.889 (Simulation time: 01 hr 03 min 44 sec)
Heartbeat CPU 0 instructions: 490000001 cycles: 244699829 heartbeat IPC: 2.176 cumulative IPC: 1.895 (Simulation time: 01 hr 05 min 00 sec)
Heartbeat CPU 0 instructions: 500000002 cycles: 249049771 heartbeat IPC: 2.299 cumulative IPC: 1.902 (Simulation time: 01 hr 06 min 14 sec)
Heartbeat CPU 0 instructions: 510000000 cycles: 253211249 heartbeat IPC: 2.403 cumulative IPC: 1.911 (Simulation time: 01 hr 07 min 27 sec)
Heartbeat CPU 0 instructions: 520000000 cycles: 257538472 heartbeat IPC: 2.311 cumulative IPC: 1.918 (Simulation time: 01 hr 08 min 41 sec)
Heartbeat CPU 0 instructions: 530000001 cycles: 267706281 heartbeat IPC: 0.9835 cumulative IPC: 1.881 (Simulation time: 01 hr 10 min 52 sec)
Heartbeat CPU 0 instructions: 540000000 cycles: 278097859 heartbeat IPC: 0.9623 cumulative IPC: 1.845 (Simulation time: 01 hr 13 min 06 sec)
Heartbeat CPU 0 instructions: 550000004 cycles: 290243498 heartbeat IPC: 0.8233 cumulative IPC: 1.8 (Simulation time: 01 hr 15 min 36 sec)
Heartbeat CPU 0 instructions: 560000004 cycles: 294429442 heartbeat IPC: 2.389 cumulative IPC: 1.809 (Simulation time: 01 hr 16 min 53 sec)
Heartbeat CPU 0 instructions: 570000001 cycles: 297544862 heartbeat IPC: 3.21 cumulative IPC: 1.824 (Simulation time: 01 hr 18 min 26 sec)
Heartbeat CPU 0 instructions: 580000003 cycles: 301068088 heartbeat IPC: 2.838 cumulative IPC: 1.837 (Simulation time: 01 hr 20 min 05 sec)
Heartbeat CPU 0 instructions: 590000002 cycles: 304680010 heartbeat IPC: 2.769 cumulative IPC: 1.848 (Simulation time: 01 hr 21 min 46 sec)
Heartbeat CPU 0 instructions: 600000003 cycles: 307742243 heartbeat IPC: 3.266 cumulative IPC: 1.863 (Simulation time: 01 hr 23 min 16 sec)
Heartbeat CPU 0 instructions: 610000001 cycles: 311245638 heartbeat IPC: 2.854 cumulative IPC: 1.875 (Simulation time: 01 hr 24 min 50 sec)
Heartbeat CPU 0 instructions: 620000000 cycles: 315259504 heartbeat IPC: 2.491 cumulative IPC: 1.883 (Simulation time: 01 hr 26 min 12 sec)
Heartbeat CPU 0 instructions: 630000002 cycles: 318623653 heartbeat IPC: 2.973 cumulative IPC: 1.895 (Simulation time: 01 hr 27 min 28 sec)
Heartbeat CPU 0 instructions: 640000004 cycles: 322630882 heartbeat IPC: 2.495 cumulative IPC: 1.902 (Simulation time: 01 hr 28 min 49 sec)
Heartbeat CPU 0 instructions: 650000001 cycles: 326451400 heartbeat IPC: 2.617 cumulative IPC: 1.911 (Simulation time: 01 hr 29 min 58 sec)
Simulation finished CPU 0 instructions: 600000001 cycles: 313951339 cumulative IPC: 1.911 (Simulation time: 01 hr 29 min 58 sec)
Simulation complete CPU 0 instructions: 600000001 cycles: 313951339 cumulative IPC: 1.911 (Simulation time: 01 hr 29 min 58 sec)

ChampSim completed all CPUs

=== Simulation ===
CPU 0 runs traces/400.perlbench-50B.champsimtrace.xz
Region of Interest Statistics

CPU 0 cumulative IPC: 1.911 instructions: 600000001 cycles: 313951339
CPU 0 Branch Prediction Accuracy: 96.2% MPKI: 7.839 Average ROB Occupancy at Mispredict: 43.6
Branch type MPKI
BRANCH_DIRECT_JUMP: 0.0176
BRANCH_INDIRECT: 0.38
BRANCH_CONDITIONAL: 6.99
BRANCH_DIRECT_CALL: 0.0067
BRANCH_INDIRECT_CALL: 0.431
BRANCH_RETURN: 0.0161

LLC TOTAL        ACCESS:     783727 HIT:     528099 MISS:     255628
LLC LOAD         ACCESS:     585884 HIT:     360169 MISS:     225715
LLC RFO          ACCESS:      47582 HIT:      31369 MISS:      16213
LLC PREFETCH     ACCESS:          0 HIT:          0 MISS:          0
LLC WRITE        ACCESS:     128176 HIT:     124550 MISS:       3626
LLC TRANSLATION  ACCESS:      22085 HIT:      12011 MISS:      10074
LLC PREFETCH REQUESTED:          0 ISSUED:          0 USEFUL:          0 USELESS:          0
LLC AVERAGE MISS LATENCY: 512.7 cycles
cpu0_DTLB TOTAL        ACCESS:  146513555 HIT:  145207284 MISS:    1306271
cpu0_DTLB LOAD         ACCESS:  146513555 HIT:  145207284 MISS:    1306271
cpu0_DTLB RFO          ACCESS:          0 HIT:          0 MISS:          0
cpu0_DTLB PREFETCH     ACCESS:          0 HIT:          0 MISS:          0
cpu0_DTLB WRITE        ACCESS:          0 HIT:          0 MISS:          0
cpu0_DTLB TRANSLATION  ACCESS:          0 HIT:          0 MISS:          0
cpu0_DTLB PREFETCH REQUESTED:          0 ISSUED:          0 USEFUL:          0 USELESS:          0
cpu0_DTLB AVERAGE MISS LATENCY: 10.72 cycles
cpu0_ITLB TOTAL        ACCESS:    8989876 HIT:    8805301 MISS:     184575
cpu0_ITLB LOAD         ACCESS:    8989876 HIT:    8805301 MISS:     184575
cpu0_ITLB RFO          ACCESS:          0 HIT:          0 MISS:          0
cpu0_ITLB PREFETCH     ACCESS:          0 HIT:          0 MISS:          0
cpu0_ITLB WRITE        ACCESS:          0 HIT:          0 MISS:          0
cpu0_ITLB TRANSLATION  ACCESS:          0 HIT:          0 MISS:          0
cpu0_ITLB PREFETCH REQUESTED:          0 ISSUED:          0 USEFUL:          0 USELESS:          0
cpu0_ITLB AVERAGE MISS LATENCY: 3.177 cycles
cpu0_L1D TOTAL        ACCESS:  193284538 HIT:  189626333 MISS:    3658205
cpu0_L1D LOAD         ACCESS:  107438862 HIT:  104425866 MISS:    3012996
cpu0_L1D RFO          ACCESS:          0 HIT:          0 MISS:          0
cpu0_L1D PREFETCH     ACCESS:          0 HIT:          0 MISS:          0
cpu0_L1D WRITE        ACCESS:   85817151 HIT:   85199042 MISS:     618109
cpu0_L1D TRANSLATION  ACCESS:      28525 HIT:       1425 MISS:      27100
cpu0_L1D PREFETCH REQUESTED:          0 ISSUED:          0 USEFUL:          0 USELESS:          0
cpu0_L1D AVERAGE MISS LATENCY: 41.54 cycles
cpu0_L1I TOTAL        ACCESS:   10423982 HIT:    8661620 MISS:    1762362
cpu0_L1I LOAD         ACCESS:   10423982 HIT:    8661620 MISS:    1762362
cpu0_L1I RFO          ACCESS:          0 HIT:          0 MISS:          0
cpu0_L1I PREFETCH     ACCESS:          0 HIT:          0 MISS:          0
cpu0_L1I WRITE        ACCESS:          0 HIT:          0 MISS:          0
cpu0_L1I TRANSLATION  ACCESS:          0 HIT:          0 MISS:          0
cpu0_L1I PREFETCH REQUESTED:          0 ISSUED:          0 USEFUL:          0 USELESS:          0
cpu0_L1I AVERAGE MISS LATENCY: 10.34 cycles
cpu0_L2C TOTAL        ACCESS:    3834550 HIT:    3175807 MISS:     658743
cpu0_L2C LOAD         ACCESS:    3104921 HIT:    2519037 MISS:     585884
cpu0_L2C RFO          ACCESS:     191561 HIT:     143979 MISS:      47582
cpu0_L2C PREFETCH     ACCESS:          0 HIT:          0 MISS:          0
cpu0_L2C WRITE        ACCESS:     511032 HIT:     507840 MISS:       3192
cpu0_L2C TRANSLATION  ACCESS:      27036 HIT:       4951 MISS:      22085
cpu0_L2C PREFETCH REQUESTED:          0 ISSUED:          0 USEFUL:          0 USELESS:          0
cpu0_L2C AVERAGE MISS LATENCY: 219.3 cycles
cpu0_STLB TOTAL        ACCESS:    1008788 HIT:     982094 MISS:      26694
cpu0_STLB LOAD         ACCESS:    1008788 HIT:     982094 MISS:      26694
cpu0_STLB RFO          ACCESS:          0 HIT:          0 MISS:          0
cpu0_STLB PREFETCH     ACCESS:          0 HIT:          0 MISS:          0
cpu0_STLB WRITE        ACCESS:          0 HIT:          0 MISS:          0
cpu0_STLB TRANSLATION  ACCESS:          0 HIT:          0 MISS:          0
cpu0_STLB PREFETCH REQUESTED:          0 ISSUED:          0 USEFUL:          0 USELESS:          0
cpu0_STLB AVERAGE MISS LATENCY: 302 cycles

DRAM Statistics

Channel 0 RQ ROW_BUFFER_HIT:      53443
  ROW_BUFFER_MISS:     198546
 AVG DBUS CONGESTED CYCLE: 3.764
WQ ROW_BUFFER_HIT: Channel 0 
  ROW_BUFFER_MISS:       8518
  FULL:      20797
Final OPTGen Hits: 7377
Final OPTGen Access: 10233
Final OPTGEN Hit Rate: 72.0903
