WARNING: physical memory size is smaller than virtual memory size.

*** ChampSim Multicore Out-of-Order Simulator ***
Warmup Instructions: 50000000
Simulation Instructions: 600000000
Number of CPUs: 1
Page size: 4096

Off-chip DRAM Size: 4 GiB Channels: 1 Width: 64-bit Data Race: 3200 MT/s
Heartbeat CPU 0 instructions: 10000000 cycles: 2500061 heartbeat IPC: 4 cumulative IPC: 4 (Simulation time: 00 hr 03 min 28 sec)
Heartbeat CPU 0 instructions: 20000000 cycles: 5000061 heartbeat IPC: 4 cumulative IPC: 4 (Simulation time: 00 hr 06 min 55 sec)
Heartbeat CPU 0 instructions: 30000000 cycles: 7500061 heartbeat IPC: 4 cumulative IPC: 4 (Simulation time: 00 hr 10 min 21 sec)
Heartbeat CPU 0 instructions: 40000000 cycles: 10000061 heartbeat IPC: 4 cumulative IPC: 4 (Simulation time: 00 hr 13 min 47 sec)
Heartbeat CPU 0 instructions: 50000000 cycles: 12500061 heartbeat IPC: 4 cumulative IPC: 4 (Simulation time: 00 hr 17 min 17 sec)
Warmup finished CPU 0 instructions: 50000000 cycles: 12500062 cumulative IPC: 4 (Simulation time: 00 hr 17 min 17 sec)
Warmup complete CPU 0 instructions: 50000000 cycles: 12500062 cumulative IPC: 4 (Simulation time: 00 hr 17 min 17 sec)
Heartbeat CPU 0 instructions: 60000002 cycles: 16261841 heartbeat IPC: 2.658 cumulative IPC: 2.658 (Simulation time: 00 hr 21 min 55 sec)
Heartbeat CPU 0 instructions: 70000003 cycles: 20427329 heartbeat IPC: 2.401 cumulative IPC: 2.523 (Simulation time: 00 hr 26 min 44 sec)
Heartbeat CPU 0 instructions: 80000003 cycles: 24627965 heartbeat IPC: 2.381 cumulative IPC: 2.474 (Simulation time: 00 hr 31 min 33 sec)
Heartbeat CPU 0 instructions: 90000000 cycles: 27861944 heartbeat IPC: 3.092 cumulative IPC: 2.604 (Simulation time: 00 hr 35 min 53 sec)
Heartbeat CPU 0 instructions: 100000003 cycles: 31871537 heartbeat IPC: 2.494 cumulative IPC: 2.581 (Simulation time: 00 hr 40 min 36 sec)
Heartbeat CPU 0 instructions: 110000002 cycles: 35847262 heartbeat IPC: 2.515 cumulative IPC: 2.57 (Simulation time: 00 hr 45 min 15 sec)
Heartbeat CPU 0 instructions: 120000001 cycles: 39405465 heartbeat IPC: 2.81 cumulative IPC: 2.602 (Simulation time: 00 hr 49 min 44 sec)
Heartbeat CPU 0 instructions: 130000003 cycles: 43060891 heartbeat IPC: 2.736 cumulative IPC: 2.618 (Simulation time: 00 hr 54 min 18 sec)
Heartbeat CPU 0 instructions: 140000002 cycles: 47014882 heartbeat IPC: 2.529 cumulative IPC: 2.608 (Simulation time: 00 hr 59 min 01 sec)
Heartbeat CPU 0 instructions: 150000001 cycles: 50914106 heartbeat IPC: 2.565 cumulative IPC: 2.603 (Simulation time: 01 hr 03 min 41 sec)
Heartbeat CPU 0 instructions: 160000000 cycles: 54561115 heartbeat IPC: 2.742 cumulative IPC: 2.615 (Simulation time: 01 hr 08 min 12 sec)
Heartbeat CPU 0 instructions: 170000001 cycles: 58529091 heartbeat IPC: 2.52 cumulative IPC: 2.607 (Simulation time: 01 hr 12 min 56 sec)
Heartbeat CPU 0 instructions: 180000001 cycles: 61958590 heartbeat IPC: 2.916 cumulative IPC: 2.628 (Simulation time: 01 hr 17 min 24 sec)
Heartbeat CPU 0 instructions: 190000002 cycles: 65441777 heartbeat IPC: 2.871 cumulative IPC: 2.644 (Simulation time: 01 hr 21 min 56 sec)
Heartbeat CPU 0 instructions: 200000002 cycles: 69174584 heartbeat IPC: 2.679 cumulative IPC: 2.647 (Simulation time: 01 hr 26 min 31 sec)
Heartbeat CPU 0 instructions: 210000000 cycles: 72724805 heartbeat IPC: 2.817 cumulative IPC: 2.657 (Simulation time: 01 hr 31 min 01 sec)
Heartbeat CPU 0 instructions: 220000001 cycles: 76428100 heartbeat IPC: 2.7 cumulative IPC: 2.659 (Simulation time: 01 hr 35 min 48 sec)
Heartbeat CPU 0 instructions: 230000002 cycles: 80130655 heartbeat IPC: 2.701 cumulative IPC: 2.662 (Simulation time: 01 hr 40 min 22 sec)
Heartbeat CPU 0 instructions: 240000004 cycles: 84127925 heartbeat IPC: 2.502 cumulative IPC: 2.653 (Simulation time: 01 hr 45 min 05 sec)
Heartbeat CPU 0 instructions: 250000003 cycles: 88446869 heartbeat IPC: 2.315 cumulative IPC: 2.633 (Simulation time: 01 hr 49 min 57 sec)
Heartbeat CPU 0 instructions: 260000001 cycles: 92099650 heartbeat IPC: 2.738 cumulative IPC: 2.638 (Simulation time: 01 hr 54 min 30 sec)
Heartbeat CPU 0 instructions: 270000003 cycles: 99561908 heartbeat IPC: 1.34 cumulative IPC: 2.527 (Simulation time: 02 hr 01 min 25 sec)
Heartbeat CPU 0 instructions: 280000000 cycles: 110640860 heartbeat IPC: 0.9026 cumulative IPC: 2.344 (Simulation time: 02 hr 10 min 43 sec)
Heartbeat CPU 0 instructions: 290000000 cycles: 120882044 heartbeat IPC: 0.9764 cumulative IPC: 2.214 (Simulation time: 02 hr 19 min 34 sec)
Heartbeat CPU 0 instructions: 300000000 cycles: 128914020 heartbeat IPC: 1.245 cumulative IPC: 2.148 (Simulation time: 02 hr 27 min 26 sec)
Heartbeat CPU 0 instructions: 310000004 cycles: 139934222 heartbeat IPC: 0.9074 cumulative IPC: 2.04 (Simulation time: 02 hr 37 min 01 sec)
Heartbeat CPU 0 instructions: 320000004 cycles: 145265812 heartbeat IPC: 1.876 cumulative IPC: 2.034 (Simulation time: 02 hr 42 min 48 sec)
Heartbeat CPU 0 instructions: 330000000 cycles: 149235351 heartbeat IPC: 2.519 cumulative IPC: 2.048 (Simulation time: 02 hr 47 min 39 sec)
Heartbeat CPU 0 instructions: 340000001 cycles: 153027301 heartbeat IPC: 2.637 cumulative IPC: 2.064 (Simulation time: 02 hr 52 min 33 sec)
Heartbeat CPU 0 instructions: 350000004 cycles: 156928631 heartbeat IPC: 2.563 cumulative IPC: 2.077 (Simulation time: 02 hr 57 min 23 sec)
Heartbeat CPU 0 instructions: 360000003 cycles: 160587192 heartbeat IPC: 2.733 cumulative IPC: 2.093 (Simulation time: 03 hr 02 min 01 sec)
Heartbeat CPU 0 instructions: 370000001 cycles: 164206011 heartbeat IPC: 2.763 cumulative IPC: 2.109 (Simulation time: 03 hr 06 min 37 sec)
Heartbeat CPU 0 instructions: 380000004 cycles: 167703809 heartbeat IPC: 2.859 cumulative IPC: 2.126 (Simulation time: 03 hr 11 min 13 sec)
Heartbeat CPU 0 instructions: 390000002 cycles: 171232816 heartbeat IPC: 2.834 cumulative IPC: 2.142 (Simulation time: 03 hr 15 min 50 sec)
Heartbeat CPU 0 instructions: 400000000 cycles: 175091817 heartbeat IPC: 2.591 cumulative IPC: 2.153 (Simulation time: 03 hr 20 min 44 sec)
Heartbeat CPU 0 instructions: 410000000 cycles: 180918418 heartbeat IPC: 1.716 cumulative IPC: 2.138 (Simulation time: 03 hr 26 min 47 sec)
Heartbeat CPU 0 instructions: 420000001 cycles: 188412852 heartbeat IPC: 1.334 cumulative IPC: 2.103 (Simulation time: 03 hr 34 min 00 sec)
Heartbeat CPU 0 instructions: 430000002 cycles: 195616169 heartbeat IPC: 1.388 cumulative IPC: 2.075 (Simulation time: 03 hr 41 min 13 sec)
Heartbeat CPU 0 instructions: 440000002 cycles: 202314896 heartbeat IPC: 1.493 cumulative IPC: 2.055 (Simulation time: 03 hr 47 min 59 sec)
Heartbeat CPU 0 instructions: 450000001 cycles: 209388239 heartbeat IPC: 1.414 cumulative IPC: 2.032 (Simulation time: 03 hr 55 min 01 sec)
Heartbeat CPU 0 instructions: 460000002 cycles: 217534001 heartbeat IPC: 1.228 cumulative IPC: 2 (Simulation time: 04 hr 02 min 40 sec)
Heartbeat CPU 0 instructions: 470000003 cycles: 224000696 heartbeat IPC: 1.546 cumulative IPC: 1.986 (Simulation time: 04 hr 09 min 17 sec)
Heartbeat CPU 0 instructions: 480000003 cycles: 227739055 heartbeat IPC: 2.675 cumulative IPC: 1.998 (Simulation time: 04 hr 14 min 00 sec)
Heartbeat CPU 0 instructions: 490000001 cycles: 231546369 heartbeat IPC: 2.627 cumulative IPC: 2.009 (Simulation time: 04 hr 18 min 44 sec)
Heartbeat CPU 0 instructions: 500000002 cycles: 235183270 heartbeat IPC: 2.75 cumulative IPC: 2.021 (Simulation time: 04 hr 23 min 22 sec)
Heartbeat CPU 0 instructions: 510000000 cycles: 238834482 heartbeat IPC: 2.739 cumulative IPC: 2.032 (Simulation time: 04 hr 28 min 01 sec)
Heartbeat CPU 0 instructions: 520000000 cycles: 242541221 heartbeat IPC: 2.698 cumulative IPC: 2.043 (Simulation time: 04 hr 32 min 40 sec)
Heartbeat CPU 0 instructions: 530000001 cycles: 250160773 heartbeat IPC: 1.312 cumulative IPC: 2.02 (Simulation time: 04 hr 40 min 09 sec)
Heartbeat CPU 0 instructions: 540000000 cycles: 257821313 heartbeat IPC: 1.305 cumulative IPC: 1.997 (Simulation time: 04 hr 47 min 35 sec)
Heartbeat CPU 0 instructions: 550000002 cycles: 265379744 heartbeat IPC: 1.323 cumulative IPC: 1.977 (Simulation time: 04 hr 54 min 54 sec)
Heartbeat CPU 0 instructions: 560000004 cycles: 269208497 heartbeat IPC: 2.612 cumulative IPC: 1.987 (Simulation time: 04 hr 59 min 38 sec)
Heartbeat CPU 0 instructions: 570000001 cycles: 272282462 heartbeat IPC: 3.253 cumulative IPC: 2.002 (Simulation time: 05 hr 03 min 59 sec)
Heartbeat CPU 0 instructions: 580000003 cycles: 275654448 heartbeat IPC: 2.966 cumulative IPC: 2.014 (Simulation time: 05 hr 08 min 23 sec)
Heartbeat CPU 0 instructions: 590000001 cycles: 279104213 heartbeat IPC: 2.899 cumulative IPC: 2.025 (Simulation time: 05 hr 12 min 53 sec)
Heartbeat CPU 0 instructions: 600000003 cycles: 282024689 heartbeat IPC: 3.424 cumulative IPC: 2.041 (Simulation time: 05 hr 17 min 11 sec)
Heartbeat CPU 0 instructions: 610000001 cycles: 285448623 heartbeat IPC: 2.921 cumulative IPC: 2.052 (Simulation time: 05 hr 21 min 42 sec)
Heartbeat CPU 0 instructions: 620000000 cycles: 288922914 heartbeat IPC: 2.878 cumulative IPC: 2.062 (Simulation time: 05 hr 26 min 25 sec)
Heartbeat CPU 0 instructions: 630000002 cycles: 292075635 heartbeat IPC: 3.172 cumulative IPC: 2.075 (Simulation time: 05 hr 30 min 48 sec)
Heartbeat CPU 0 instructions: 640000004 cycles: 295773435 heartbeat IPC: 2.704 cumulative IPC: 2.083 (Simulation time: 05 hr 35 min 29 sec)
Heartbeat CPU 0 instructions: 650000001 cycles: 299154149 heartbeat IPC: 2.958 cumulative IPC: 2.093 (Simulation time: 05 hr 39 min 58 sec)
Simulation finished CPU 0 instructions: 600000001 cycles: 286654088 cumulative IPC: 2.093 (Simulation time: 05 hr 39 min 58 sec)
Simulation complete CPU 0 instructions: 600000001 cycles: 286654088 cumulative IPC: 2.093 (Simulation time: 05 hr 39 min 58 sec)

ChampSim completed all CPUs

=== Simulation ===
CPU 0 runs traces/400.perlbench-50B.champsimtrace.xz
Region of Interest Statistics

CPU 0 cumulative IPC: 2.093 instructions: 600000001 cycles: 286654088
CPU 0 Branch Prediction Accuracy: 96.09% MPKI: 8.064 Average ROB Occupancy at Mispredict: 39.94
Branch type MPKI
BRANCH_DIRECT_JUMP: 0.0176
BRANCH_INDIRECT: 0.38
BRANCH_CONDITIONAL: 7.21
BRANCH_DIRECT_CALL: 0.0067
BRANCH_INDIRECT_CALL: 0.431
BRANCH_RETURN: 0.0161

LLC TOTAL        ACCESS:     796956 HIT:     682983 MISS:     113973
LLC LOAD         ACCESS:     597688 HIT:     502310 MISS:      95378
LLC RFO          ACCESS:      47628 HIT:      38324 MISS:       9304
LLC PREFETCH     ACCESS:          0 HIT:          0 MISS:          0
LLC WRITE        ACCESS:     129563 HIT:     129424 MISS:        139
LLC TRANSLATION  ACCESS:      22077 HIT:      12925 MISS:       9152
LLC PREFETCH REQUESTED:          0 ISSUED:          0 USEFUL:          0 USELESS:          0
LLC AVERAGE MISS LATENCY: 458.6 cycles
cpu0_DTLB TOTAL        ACCESS:  146296757 HIT:  145003349 MISS:    1293408
cpu0_DTLB LOAD         ACCESS:  146296757 HIT:  145003349 MISS:    1293408
cpu0_DTLB RFO          ACCESS:          0 HIT:          0 MISS:          0
cpu0_DTLB PREFETCH     ACCESS:          0 HIT:          0 MISS:          0
cpu0_DTLB WRITE        ACCESS:          0 HIT:          0 MISS:          0
cpu0_DTLB TRANSLATION  ACCESS:          0 HIT:          0 MISS:          0
cpu0_DTLB PREFETCH REQUESTED:          0 ISSUED:          0 USEFUL:          0 USELESS:          0
cpu0_DTLB AVERAGE MISS LATENCY: 9.797 cycles
cpu0_ITLB TOTAL        ACCESS:    8992601 HIT:    8820212 MISS:     172389
cpu0_ITLB LOAD         ACCESS:    8992601 HIT:    8820212 MISS:     172389
cpu0_ITLB RFO          ACCESS:          0 HIT:          0 MISS:          0
cpu0_ITLB PREFETCH     ACCESS:          0 HIT:          0 MISS:          0
cpu0_ITLB WRITE        ACCESS:          0 HIT:          0 MISS:          0
cpu0_ITLB TRANSLATION  ACCESS:          0 HIT:          0 MISS:          0
cpu0_ITLB PREFETCH REQUESTED:          0 ISSUED:          0 USEFUL:          0 USELESS:          0
cpu0_ITLB AVERAGE MISS LATENCY: 3.221 cycles
cpu0_L1D TOTAL        ACCESS:  193037072 HIT:  189457111 MISS:    3579961
cpu0_L1D LOAD         ACCESS:  107220986 HIT:  104267158 MISS:    2953828
cpu0_L1D RFO          ACCESS:          0 HIT:          0 MISS:          0
cpu0_L1D PREFETCH     ACCESS:          0 HIT:          0 MISS:          0
cpu0_L1D WRITE        ACCESS:   85787556 HIT:   85188520 MISS:     599036
cpu0_L1D TRANSLATION  ACCESS:      28530 HIT:       1433 MISS:      27097
cpu0_L1D PREFETCH REQUESTED:          0 ISSUED:          0 USEFUL:          0 USELESS:          0
cpu0_L1D AVERAGE MISS LATENCY: 21.48 cycles
cpu0_L1I TOTAL        ACCESS:   10426970 HIT:    8712310 MISS:    1714660
cpu0_L1I LOAD         ACCESS:   10426970 HIT:    8712310 MISS:    1714660
cpu0_L1I RFO          ACCESS:          0 HIT:          0 MISS:          0
cpu0_L1I PREFETCH     ACCESS:          0 HIT:          0 MISS:          0
cpu0_L1I WRITE        ACCESS:          0 HIT:          0 MISS:          0
cpu0_L1I TRANSLATION  ACCESS:          0 HIT:          0 MISS:          0
cpu0_L1I PREFETCH REQUESTED:          0 ISSUED:          0 USEFUL:          0 USELESS:          0
cpu0_L1I AVERAGE MISS LATENCY: 9.762 cycles
cpu0_L2C TOTAL        ACCESS:    3833879 HIT:    3163005 MISS:     670874
cpu0_L2C LOAD         ACCESS:    3105524 HIT:    2507836 MISS:     597688
cpu0_L2C RFO          ACCESS:     190670 HIT:     143042 MISS:      47628
cpu0_L2C PREFETCH     ACCESS:          0 HIT:          0 MISS:          0
cpu0_L2C WRITE        ACCESS:     510641 HIT:     507160 MISS:       3481
cpu0_L2C TRANSLATION  ACCESS:      27044 HIT:       4967 MISS:      22077
cpu0_L2C PREFETCH REQUESTED:          0 ISSUED:          0 USEFUL:          0 USELESS:          0
cpu0_L2C AVERAGE MISS LATENCY: 97.99 cycles
cpu0_STLB TOTAL        ACCESS:    1009129 HIT:     982433 MISS:      26696
cpu0_STLB LOAD         ACCESS:    1009129 HIT:     982433 MISS:      26696
cpu0_STLB RFO          ACCESS:          0 HIT:          0 MISS:          0
cpu0_STLB PREFETCH     ACCESS:          0 HIT:          0 MISS:          0
cpu0_STLB WRITE        ACCESS:          0 HIT:          0 MISS:          0
cpu0_STLB TRANSLATION  ACCESS:          0 HIT:          0 MISS:          0
cpu0_STLB PREFETCH REQUESTED:          0 ISSUED:          0 USEFUL:          0 USELESS:          0
cpu0_STLB AVERAGE MISS LATENCY: 243.8 cycles

DRAM Statistics

Channel 0 RQ ROW_BUFFER_HIT:      34795
  ROW_BUFFER_MISS:      79039
 AVG DBUS CONGESTED CYCLE: 3.691
WQ ROW_BUFFER_HIT: Channel 0 
  ROW_BUFFER_MISS:        526
  FULL:        863
