WARNING: physical memory size is smaller than virtual memory size.

*** ChampSim Multicore Out-of-Order Simulator ***
Warmup Instructions: 50000000
Simulation Instructions: 600000000
Number of CPUs: 1
Page size: 4096

Off-chip DRAM Size: 4 GiB Channels: 1 Width: 64-bit Data Race: 3200 MT/s
Heartbeat CPU 0 instructions: 10000001 cycles: 2500319 heartbeat IPC: 3.999 cumulative IPC: 3.999 (Simulation time: 00 hr 03 min 54 sec)
Heartbeat CPU 0 instructions: 20000002 cycles: 5037117 heartbeat IPC: 3.942 cumulative IPC: 3.971 (Simulation time: 00 hr 07 min 42 sec)
Heartbeat CPU 0 instructions: 30000002 cycles: 7537117 heartbeat IPC: 4 cumulative IPC: 3.98 (Simulation time: 00 hr 11 min 05 sec)
Heartbeat CPU 0 instructions: 40000002 cycles: 10037117 heartbeat IPC: 4 cumulative IPC: 3.985 (Simulation time: 00 hr 14 min 31 sec)
Heartbeat CPU 0 instructions: 50000002 cycles: 12537117 heartbeat IPC: 4 cumulative IPC: 3.988 (Simulation time: 00 hr 17 min 56 sec)
Warmup finished CPU 0 instructions: 50000002 cycles: 12537118 cumulative IPC: 3.988 (Simulation time: 00 hr 17 min 56 sec)
Warmup complete CPU 0 instructions: 50000002 cycles: 12537118 cumulative IPC: 3.988 (Simulation time: 00 hr 17 min 56 sec)
Heartbeat CPU 0 instructions: 60000000 cycles: 17716257 heartbeat IPC: 1.931 cumulative IPC: 1.931 (Simulation time: 00 hr 23 min 14 sec)
Heartbeat CPU 0 instructions: 70000002 cycles: 22607535 heartbeat IPC: 2.044 cumulative IPC: 1.986 (Simulation time: 00 hr 28 min 25 sec)
Heartbeat CPU 0 instructions: 80000001 cycles: 27973520 heartbeat IPC: 1.864 cumulative IPC: 1.943 (Simulation time: 00 hr 33 min 53 sec)
Heartbeat CPU 0 instructions: 90000001 cycles: 32837296 heartbeat IPC: 2.056 cumulative IPC: 1.97 (Simulation time: 00 hr 39 min 04 sec)
Heartbeat CPU 0 instructions: 100000000 cycles: 37930791 heartbeat IPC: 1.963 cumulative IPC: 1.969 (Simulation time: 00 hr 44 min 22 sec)
Heartbeat CPU 0 instructions: 110000000 cycles: 42795272 heartbeat IPC: 2.056 cumulative IPC: 1.983 (Simulation time: 00 hr 49 min 30 sec)
Heartbeat CPU 0 instructions: 120000001 cycles: 47978622 heartbeat IPC: 1.929 cumulative IPC: 1.975 (Simulation time: 00 hr 54 min 50 sec)
Heartbeat CPU 0 instructions: 130000001 cycles: 53102294 heartbeat IPC: 1.952 cumulative IPC: 1.972 (Simulation time: 01 hr 00 min 10 sec)
Heartbeat CPU 0 instructions: 140000001 cycles: 58371281 heartbeat IPC: 1.898 cumulative IPC: 1.964 (Simulation time: 01 hr 05 min 32 sec)
Heartbeat CPU 0 instructions: 150000001 cycles: 63653937 heartbeat IPC: 1.893 cumulative IPC: 1.956 (Simulation time: 01 hr 10 min 55 sec)
Heartbeat CPU 0 instructions: 160000004 cycles: 68813281 heartbeat IPC: 1.938 cumulative IPC: 1.955 (Simulation time: 01 hr 16 min 15 sec)
Heartbeat CPU 0 instructions: 170000000 cycles: 76737033 heartbeat IPC: 1.262 cumulative IPC: 1.869 (Simulation time: 01 hr 23 min 32 sec)
Heartbeat CPU 0 instructions: 180000004 cycles: 83415414 heartbeat IPC: 1.497 cumulative IPC: 1.834 (Simulation time: 01 hr 30 min 13 sec)
Heartbeat CPU 0 instructions: 190000001 cycles: 89570112 heartbeat IPC: 1.625 cumulative IPC: 1.817 (Simulation time: 01 hr 36 min 34 sec)
Heartbeat CPU 0 instructions: 200000003 cycles: 94054216 heartbeat IPC: 2.23 cumulative IPC: 1.84 (Simulation time: 01 hr 41 min 30 sec)
Heartbeat CPU 0 instructions: 210000001 cycles: 98751267 heartbeat IPC: 2.129 cumulative IPC: 1.856 (Simulation time: 01 hr 46 min 33 sec)
Heartbeat CPU 0 instructions: 220000000 cycles: 103446176 heartbeat IPC: 2.13 cumulative IPC: 1.87 (Simulation time: 01 hr 51 min 37 sec)
Heartbeat CPU 0 instructions: 230000002 cycles: 108320814 heartbeat IPC: 2.051 cumulative IPC: 1.879 (Simulation time: 01 hr 56 min 43 sec)
Heartbeat CPU 0 instructions: 240000000 cycles: 112906435 heartbeat IPC: 2.181 cumulative IPC: 1.893 (Simulation time: 02 hr 01 min 43 sec)
Heartbeat CPU 0 instructions: 250000000 cycles: 117750887 heartbeat IPC: 2.064 cumulative IPC: 1.901 (Simulation time: 02 hr 06 min 52 sec)
Heartbeat CPU 0 instructions: 260000000 cycles: 122475116 heartbeat IPC: 2.117 cumulative IPC: 1.91 (Simulation time: 02 hr 11 min 57 sec)
Heartbeat CPU 0 instructions: 270000002 cycles: 127156508 heartbeat IPC: 2.136 cumulative IPC: 1.919 (Simulation time: 02 hr 17 min 02 sec)
Heartbeat CPU 0 instructions: 280000002 cycles: 131835293 heartbeat IPC: 2.137 cumulative IPC: 1.928 (Simulation time: 02 hr 22 min 05 sec)
Heartbeat CPU 0 instructions: 290000001 cycles: 137028017 heartbeat IPC: 1.926 cumulative IPC: 1.928 (Simulation time: 02 hr 27 min 26 sec)
Heartbeat CPU 0 instructions: 300000003 cycles: 141827208 heartbeat IPC: 2.084 cumulative IPC: 1.934 (Simulation time: 02 hr 32 min 35 sec)
Heartbeat CPU 0 instructions: 310000001 cycles: 146815577 heartbeat IPC: 2.005 cumulative IPC: 1.936 (Simulation time: 02 hr 37 min 49 sec)
Heartbeat CPU 0 instructions: 320000003 cycles: 151806936 heartbeat IPC: 2.003 cumulative IPC: 1.939 (Simulation time: 02 hr 43 min 03 sec)
Heartbeat CPU 0 instructions: 330000003 cycles: 156812780 heartbeat IPC: 1.998 cumulative IPC: 1.941 (Simulation time: 02 hr 48 min 15 sec)
Heartbeat CPU 0 instructions: 340000000 cycles: 164039519 heartbeat IPC: 1.384 cumulative IPC: 1.914 (Simulation time: 02 hr 55 min 11 sec)
Heartbeat CPU 0 instructions: 350000000 cycles: 170793499 heartbeat IPC: 1.481 cumulative IPC: 1.896 (Simulation time: 03 hr 01 min 57 sec)
Heartbeat CPU 0 instructions: 360000004 cycles: 177161338 heartbeat IPC: 1.57 cumulative IPC: 1.883 (Simulation time: 03 hr 08 min 27 sec)
Heartbeat CPU 0 instructions: 370000000 cycles: 181365145 heartbeat IPC: 2.379 cumulative IPC: 1.895 (Simulation time: 03 hr 13 min 13 sec)
Heartbeat CPU 0 instructions: 380000001 cycles: 186081368 heartbeat IPC: 2.12 cumulative IPC: 1.902 (Simulation time: 03 hr 18 min 22 sec)
Heartbeat CPU 0 instructions: 390000002 cycles: 190760958 heartbeat IPC: 2.137 cumulative IPC: 1.908 (Simulation time: 03 hr 23 min 29 sec)
Heartbeat CPU 0 instructions: 400000004 cycles: 195597258 heartbeat IPC: 2.068 cumulative IPC: 1.912 (Simulation time: 03 hr 28 min 38 sec)
Heartbeat CPU 0 instructions: 410000000 cycles: 200088689 heartbeat IPC: 2.226 cumulative IPC: 1.919 (Simulation time: 03 hr 33 min 32 sec)
Heartbeat CPU 0 instructions: 420000000 cycles: 204872934 heartbeat IPC: 2.09 cumulative IPC: 1.924 (Simulation time: 03 hr 38 min 38 sec)
Heartbeat CPU 0 instructions: 430000001 cycles: 209169297 heartbeat IPC: 2.328 cumulative IPC: 1.933 (Simulation time: 03 hr 43 min 33 sec)
Heartbeat CPU 0 instructions: 440000000 cycles: 214268533 heartbeat IPC: 1.961 cumulative IPC: 1.933 (Simulation time: 03 hr 48 min 51 sec)
Heartbeat CPU 0 instructions: 450000002 cycles: 218714805 heartbeat IPC: 2.249 cumulative IPC: 1.94 (Simulation time: 03 hr 53 min 47 sec)
Heartbeat CPU 0 instructions: 460000000 cycles: 223310932 heartbeat IPC: 2.176 cumulative IPC: 1.945 (Simulation time: 03 hr 58 min 48 sec)
Heartbeat CPU 0 instructions: 470000000 cycles: 228113087 heartbeat IPC: 2.082 cumulative IPC: 1.948 (Simulation time: 04 hr 03 min 56 sec)
Heartbeat CPU 0 instructions: 480000003 cycles: 232686617 heartbeat IPC: 2.186 cumulative IPC: 1.953 (Simulation time: 04 hr 08 min 54 sec)
Heartbeat CPU 0 instructions: 490000000 cycles: 237171168 heartbeat IPC: 2.23 cumulative IPC: 1.959 (Simulation time: 04 hr 13 min 51 sec)
Heartbeat CPU 0 instructions: 500000000 cycles: 242066887 heartbeat IPC: 2.043 cumulative IPC: 1.961 (Simulation time: 04 hr 19 min 10 sec)
Heartbeat CPU 0 instructions: 510000003 cycles: 247493832 heartbeat IPC: 1.843 cumulative IPC: 1.958 (Simulation time: 04 hr 24 min 40 sec)
Heartbeat CPU 0 instructions: 520000001 cycles: 251966769 heartbeat IPC: 2.236 cumulative IPC: 1.963 (Simulation time: 04 hr 29 min 36 sec)
Heartbeat CPU 0 instructions: 530000002 cycles: 256925779 heartbeat IPC: 2.017 cumulative IPC: 1.964 (Simulation time: 04 hr 34 min 50 sec)
Heartbeat CPU 0 instructions: 540000000 cycles: 261864623 heartbeat IPC: 2.025 cumulative IPC: 1.965 (Simulation time: 04 hr 40 min 13 sec)
Heartbeat CPU 0 instructions: 550000001 cycles: 266532050 heartbeat IPC: 2.143 cumulative IPC: 1.969 (Simulation time: 04 hr 45 min 19 sec)
Heartbeat CPU 0 instructions: 560000000 cycles: 271515358 heartbeat IPC: 2.007 cumulative IPC: 1.969 (Simulation time: 04 hr 50 min 34 sec)
Heartbeat CPU 0 instructions: 570000004 cycles: 277300714 heartbeat IPC: 1.729 cumulative IPC: 1.964 (Simulation time: 04 hr 56 min 30 sec)
Heartbeat CPU 0 instructions: 580000003 cycles: 284692208 heartbeat IPC: 1.353 cumulative IPC: 1.947 (Simulation time: 05 hr 03 min 40 sec)
Heartbeat CPU 0 instructions: 590000002 cycles: 291892633 heartbeat IPC: 1.389 cumulative IPC: 1.933 (Simulation time: 05 hr 10 min 46 sec)
Heartbeat CPU 0 instructions: 600000000 cycles: 296226877 heartbeat IPC: 2.307 cumulative IPC: 1.939 (Simulation time: 05 hr 15 min 37 sec)
Heartbeat CPU 0 instructions: 610000002 cycles: 300533035 heartbeat IPC: 2.322 cumulative IPC: 1.944 (Simulation time: 05 hr 20 min 26 sec)
Heartbeat CPU 0 instructions: 620000000 cycles: 305229292 heartbeat IPC: 2.129 cumulative IPC: 1.947 (Simulation time: 05 hr 25 min 32 sec)
Heartbeat CPU 0 instructions: 630000002 cycles: 310143501 heartbeat IPC: 2.035 cumulative IPC: 1.949 (Simulation time: 05 hr 30 min 43 sec)
Heartbeat CPU 0 instructions: 640000001 cycles: 314924095 heartbeat IPC: 2.092 cumulative IPC: 1.951 (Simulation time: 05 hr 35 min 52 sec)
Heartbeat CPU 0 instructions: 650000000 cycles: 319409974 heartbeat IPC: 2.229 cumulative IPC: 1.955 (Simulation time: 05 hr 40 min 50 sec)
Simulation finished CPU 0 instructions: 600000001 cycles: 306872858 cumulative IPC: 1.955 (Simulation time: 05 hr 40 min 50 sec)
Simulation complete CPU 0 instructions: 600000001 cycles: 306872858 cumulative IPC: 1.955 (Simulation time: 05 hr 40 min 50 sec)

ChampSim completed all CPUs

=== Simulation ===
CPU 0 runs traces/400.perlbench-41B.champsimtrace.xz
Region of Interest Statistics

CPU 0 cumulative IPC: 1.955 instructions: 600000001 cycles: 306872858
CPU 0 Branch Prediction Accuracy: 93.95% MPKI: 12.5 Average ROB Occupancy at Mispredict: 29.32
Branch type MPKI
BRANCH_DIRECT_JUMP: 0.0123
BRANCH_INDIRECT: 0.323
BRANCH_CONDITIONAL: 12
BRANCH_DIRECT_CALL: 0.0043
BRANCH_INDIRECT_CALL: 0.2
BRANCH_RETURN: 0.00828

LLC TOTAL        ACCESS:     831678 HIT:     727719 MISS:     103959
LLC LOAD         ACCESS:     398348 HIT:     364460 MISS:      33888
LLC RFO          ACCESS:      32177 HIT:      27221 MISS:       4956
LLC PREFETCH     ACCESS:     297947 HIT:     241582 MISS:      56365
LLC WRITE        ACCESS:      84298 HIT:      83363 MISS:        935
LLC TRANSLATION  ACCESS:      18908 HIT:      11093 MISS:       7815
LLC PREFETCH REQUESTED:     300495 ISSUED:     297947 USEFUL:      15618 USELESS:      27880
LLC AVERAGE MISS LATENCY: 609.5 cycles
cpu0_DTLB TOTAL        ACCESS:  153689307 HIT:  153012820 MISS:     676487
cpu0_DTLB LOAD         ACCESS:  153689307 HIT:  153012820 MISS:     676487
cpu0_DTLB RFO          ACCESS:          0 HIT:          0 MISS:          0
cpu0_DTLB PREFETCH     ACCESS:          0 HIT:          0 MISS:          0
cpu0_DTLB WRITE        ACCESS:          0 HIT:          0 MISS:          0
cpu0_DTLB TRANSLATION  ACCESS:          0 HIT:          0 MISS:          0
cpu0_DTLB PREFETCH REQUESTED:          0 ISSUED:          0 USEFUL:          0 USELESS:          0
cpu0_DTLB AVERAGE MISS LATENCY: 12.05 cycles
cpu0_ITLB TOTAL        ACCESS:    4839106 HIT:    4781206 MISS:      57900
cpu0_ITLB LOAD         ACCESS:    4839106 HIT:    4781206 MISS:      57900
cpu0_ITLB RFO          ACCESS:          0 HIT:          0 MISS:          0
cpu0_ITLB PREFETCH     ACCESS:          0 HIT:          0 MISS:          0
cpu0_ITLB WRITE        ACCESS:          0 HIT:          0 MISS:          0
cpu0_ITLB TRANSLATION  ACCESS:          0 HIT:          0 MISS:          0
cpu0_ITLB PREFETCH REQUESTED:          0 ISSUED:          0 USEFUL:          0 USELESS:          0
cpu0_ITLB AVERAGE MISS LATENCY: 5.603 cycles
cpu0_L1D TOTAL        ACCESS:  200319969 HIT:  198635268 MISS:    1684701
cpu0_L1D LOAD         ACCESS:  117077046 HIT:  115765197 MISS:    1311849
cpu0_L1D RFO          ACCESS:          0 HIT:          0 MISS:          0
cpu0_L1D PREFETCH     ACCESS:          0 HIT:          0 MISS:          0
cpu0_L1D WRITE        ACCESS:   83218460 HIT:   82869029 MISS:     349431
cpu0_L1D TRANSLATION  ACCESS:      24463 HIT:       1042 MISS:      23421
cpu0_L1D PREFETCH REQUESTED:          0 ISSUED:          0 USEFUL:          0 USELESS:          0
cpu0_L1D AVERAGE MISS LATENCY: 24.4 cycles
cpu0_L1I TOTAL        ACCESS:    5581261 HIT:    4819395 MISS:     761866
cpu0_L1I LOAD         ACCESS:    5581261 HIT:    4819395 MISS:     761866
cpu0_L1I RFO          ACCESS:          0 HIT:          0 MISS:          0
cpu0_L1I PREFETCH     ACCESS:          0 HIT:          0 MISS:          0
cpu0_L1I WRITE        ACCESS:          0 HIT:          0 MISS:          0
cpu0_L1I TRANSLATION  ACCESS:          0 HIT:          0 MISS:          0
cpu0_L1I PREFETCH REQUESTED:          0 ISSUED:          0 USEFUL:          0 USELESS:          0
cpu0_L1I AVERAGE MISS LATENCY: 8.682 cycles
cpu0_L2C TOTAL        ACCESS:    1668141 HIT:    1217058 MISS:     451083
cpu0_L2C LOAD         ACCESS:    1317211 HIT:     918863 MISS:     398348
cpu0_L2C RFO          ACCESS:      88584 HIT:      56407 MISS:      32177
cpu0_L2C PREFETCH     ACCESS:          0 HIT:          0 MISS:          0
cpu0_L2C WRITE        ACCESS:     239003 HIT:     237353 MISS:       1650
cpu0_L2C TRANSLATION  ACCESS:      23343 HIT:       4435 MISS:      18908
cpu0_L2C PREFETCH REQUESTED:          0 ISSUED:          0 USEFUL:          0 USELESS:          0
cpu0_L2C AVERAGE MISS LATENCY: 79.69 cycles
cpu0_STLB TOTAL        ACCESS:     505049 HIT:     482259 MISS:      22790
cpu0_STLB LOAD         ACCESS:     505049 HIT:     482259 MISS:      22790
cpu0_STLB RFO          ACCESS:          0 HIT:          0 MISS:          0
cpu0_STLB PREFETCH     ACCESS:          0 HIT:          0 MISS:          0
cpu0_STLB WRITE        ACCESS:          0 HIT:          0 MISS:          0
cpu0_STLB TRANSLATION  ACCESS:          0 HIT:          0 MISS:          0
cpu0_STLB PREFETCH REQUESTED:          0 ISSUED:          0 USEFUL:          0 USELESS:          0
cpu0_STLB AVERAGE MISS LATENCY: 227.4 cycles

DRAM Statistics

Channel 0 RQ ROW_BUFFER_HIT:      37817
  ROW_BUFFER_MISS:      63211
 AVG DBUS CONGESTED CYCLE: 3.882
WQ ROW_BUFFER_HIT: Channel 0 
  ROW_BUFFER_MISS:       1880
  FULL:       3960
