WARNING: physical memory size is smaller than virtual memory size.

*** ChampSim Multicore Out-of-Order Simulator ***
Warmup Instructions: 50000000
Simulation Instructions: 600000000
Number of CPUs: 1
Page size: 4096

Off-chip DRAM Size: 4 GiB Channels: 1 Width: 64-bit Data Race: 3200 MT/s
Heartbeat CPU 0 instructions: 10000000 cycles: 2500061 heartbeat IPC: 4 cumulative IPC: 4 (Simulation time: 00 hr 03 min 26 sec)
Heartbeat CPU 0 instructions: 20000000 cycles: 5000061 heartbeat IPC: 4 cumulative IPC: 4 (Simulation time: 00 hr 06 min 53 sec)
Heartbeat CPU 0 instructions: 30000000 cycles: 7500061 heartbeat IPC: 4 cumulative IPC: 4 (Simulation time: 00 hr 10 min 18 sec)
Heartbeat CPU 0 instructions: 40000000 cycles: 10000061 heartbeat IPC: 4 cumulative IPC: 4 (Simulation time: 00 hr 13 min 41 sec)
Heartbeat CPU 0 instructions: 50000000 cycles: 12500061 heartbeat IPC: 4 cumulative IPC: 4 (Simulation time: 00 hr 17 min 08 sec)
Warmup finished CPU 0 instructions: 50000000 cycles: 12500062 cumulative IPC: 4 (Simulation time: 00 hr 17 min 08 sec)
Warmup complete CPU 0 instructions: 50000000 cycles: 12500062 cumulative IPC: 4 (Simulation time: 00 hr 17 min 08 sec)
Heartbeat CPU 0 instructions: 60000002 cycles: 16435783 heartbeat IPC: 2.541 cumulative IPC: 2.541 (Simulation time: 00 hr 21 min 50 sec)
Heartbeat CPU 0 instructions: 70000003 cycles: 20749204 heartbeat IPC: 2.318 cumulative IPC: 2.424 (Simulation time: 00 hr 26 min 36 sec)
Heartbeat CPU 0 instructions: 80000003 cycles: 25212938 heartbeat IPC: 2.24 cumulative IPC: 2.36 (Simulation time: 00 hr 31 min 42 sec)
Heartbeat CPU 0 instructions: 90000000 cycles: 28902625 heartbeat IPC: 2.71 cumulative IPC: 2.439 (Simulation time: 00 hr 36 min 12 sec)
Heartbeat CPU 0 instructions: 100000003 cycles: 32797283 heartbeat IPC: 2.568 cumulative IPC: 2.463 (Simulation time: 00 hr 40 min 50 sec)
Heartbeat CPU 0 instructions: 110000002 cycles: 36888882 heartbeat IPC: 2.444 cumulative IPC: 2.46 (Simulation time: 00 hr 45 min 32 sec)
Heartbeat CPU 0 instructions: 120000001 cycles: 40602045 heartbeat IPC: 2.693 cumulative IPC: 2.491 (Simulation time: 00 hr 50 min 02 sec)
Heartbeat CPU 0 instructions: 130000003 cycles: 44366187 heartbeat IPC: 2.657 cumulative IPC: 2.511 (Simulation time: 00 hr 54 min 46 sec)
Heartbeat CPU 0 instructions: 140000002 cycles: 48491614 heartbeat IPC: 2.424 cumulative IPC: 2.501 (Simulation time: 00 hr 59 min 29 sec)
Heartbeat CPU 0 instructions: 150000001 cycles: 52535644 heartbeat IPC: 2.473 cumulative IPC: 2.498 (Simulation time: 01 hr 04 min 10 sec)
Heartbeat CPU 0 instructions: 160000000 cycles: 56184366 heartbeat IPC: 2.741 cumulative IPC: 2.518 (Simulation time: 01 hr 08 min 38 sec)
Heartbeat CPU 0 instructions: 170000001 cycles: 60350038 heartbeat IPC: 2.401 cumulative IPC: 2.508 (Simulation time: 01 hr 13 min 21 sec)
Heartbeat CPU 0 instructions: 180000001 cycles: 63805525 heartbeat IPC: 2.894 cumulative IPC: 2.534 (Simulation time: 01 hr 17 min 47 sec)
Heartbeat CPU 0 instructions: 190000002 cycles: 67382191 heartbeat IPC: 2.796 cumulative IPC: 2.551 (Simulation time: 01 hr 22 min 17 sec)
Heartbeat CPU 0 instructions: 200000002 cycles: 71153161 heartbeat IPC: 2.652 cumulative IPC: 2.557 (Simulation time: 01 hr 26 min 51 sec)
Heartbeat CPU 0 instructions: 210000000 cycles: 74788089 heartbeat IPC: 2.751 cumulative IPC: 2.569 (Simulation time: 01 hr 31 min 20 sec)
Heartbeat CPU 0 instructions: 220000001 cycles: 78655984 heartbeat IPC: 2.585 cumulative IPC: 2.57 (Simulation time: 01 hr 36 min 00 sec)
Heartbeat CPU 0 instructions: 230000002 cycles: 82491062 heartbeat IPC: 2.608 cumulative IPC: 2.572 (Simulation time: 01 hr 40 min 35 sec)
Heartbeat CPU 0 instructions: 240000001 cycles: 86693138 heartbeat IPC: 2.38 cumulative IPC: 2.561 (Simulation time: 01 hr 45 min 24 sec)
Heartbeat CPU 0 instructions: 250000003 cycles: 91251932 heartbeat IPC: 2.194 cumulative IPC: 2.54 (Simulation time: 01 hr 50 min 20 sec)
Heartbeat CPU 0 instructions: 260000000 cycles: 95043028 heartbeat IPC: 2.638 cumulative IPC: 2.544 (Simulation time: 01 hr 54 min 56 sec)
Heartbeat CPU 0 instructions: 270000003 cycles: 101666040 heartbeat IPC: 1.51 cumulative IPC: 2.467 (Simulation time: 02 hr 01 min 19 sec)
Heartbeat CPU 0 instructions: 280000000 cycles: 111310609 heartbeat IPC: 1.037 cumulative IPC: 2.328 (Simulation time: 02 hr 09 min 50 sec)
Heartbeat CPU 0 instructions: 290000000 cycles: 119912168 heartbeat IPC: 1.163 cumulative IPC: 2.234 (Simulation time: 02 hr 17 min 51 sec)
Heartbeat CPU 0 instructions: 300000003 cycles: 126995209 heartbeat IPC: 1.412 cumulative IPC: 2.183 (Simulation time: 02 hr 25 min 03 sec)
Heartbeat CPU 0 instructions: 310000004 cycles: 136810177 heartbeat IPC: 1.019 cumulative IPC: 2.092 (Simulation time: 02 hr 33 min 54 sec)
Heartbeat CPU 0 instructions: 320000004 cycles: 141683141 heartbeat IPC: 2.052 cumulative IPC: 2.09 (Simulation time: 02 hr 39 min 33 sec)
Heartbeat CPU 0 instructions: 330000000 cycles: 145681740 heartbeat IPC: 2.501 cumulative IPC: 2.102 (Simulation time: 02 hr 44 min 21 sec)
Heartbeat CPU 0 instructions: 340000001 cycles: 149567338 heartbeat IPC: 2.574 cumulative IPC: 2.116 (Simulation time: 02 hr 49 min 03 sec)
Heartbeat CPU 0 instructions: 350000004 cycles: 153575139 heartbeat IPC: 2.495 cumulative IPC: 2.127 (Simulation time: 02 hr 53 min 51 sec)
Heartbeat CPU 0 instructions: 360000003 cycles: 157311783 heartbeat IPC: 2.676 cumulative IPC: 2.141 (Simulation time: 02 hr 58 min 28 sec)
Heartbeat CPU 0 instructions: 370000001 cycles: 161024906 heartbeat IPC: 2.693 cumulative IPC: 2.155 (Simulation time: 03 hr 03 min 17 sec)
Heartbeat CPU 0 instructions: 380000004 cycles: 164591636 heartbeat IPC: 2.804 cumulative IPC: 2.17 (Simulation time: 03 hr 07 min 50 sec)
Heartbeat CPU 0 instructions: 390000002 cycles: 168186489 heartbeat IPC: 2.782 cumulative IPC: 2.184 (Simulation time: 03 hr 12 min 24 sec)
Heartbeat CPU 0 instructions: 400000000 cycles: 172039462 heartbeat IPC: 2.595 cumulative IPC: 2.194 (Simulation time: 03 hr 17 min 07 sec)
Heartbeat CPU 0 instructions: 410000000 cycles: 177432524 heartbeat IPC: 1.854 cumulative IPC: 2.183 (Simulation time: 03 hr 22 min 55 sec)
Heartbeat CPU 0 instructions: 420000003 cycles: 184209411 heartbeat IPC: 1.476 cumulative IPC: 2.155 (Simulation time: 03 hr 29 min 37 sec)
Heartbeat CPU 0 instructions: 430000000 cycles: 190666378 heartbeat IPC: 1.549 cumulative IPC: 2.133 (Simulation time: 03 hr 36 min 24 sec)
Heartbeat CPU 0 instructions: 440000004 cycles: 196630918 heartbeat IPC: 1.677 cumulative IPC: 2.118 (Simulation time: 03 hr 42 min 52 sec)
Heartbeat CPU 0 instructions: 450000001 cycles: 202817489 heartbeat IPC: 1.616 cumulative IPC: 2.102 (Simulation time: 03 hr 49 min 18 sec)
Heartbeat CPU 0 instructions: 460000002 cycles: 210324460 heartbeat IPC: 1.332 cumulative IPC: 2.073 (Simulation time: 03 hr 56 min 35 sec)
Heartbeat CPU 0 instructions: 470000003 cycles: 216641117 heartbeat IPC: 1.583 cumulative IPC: 2.057 (Simulation time: 04 hr 03 min 05 sec)
Heartbeat CPU 0 instructions: 480000003 cycles: 220442526 heartbeat IPC: 2.631 cumulative IPC: 2.068 (Simulation time: 04 hr 07 min 45 sec)
Heartbeat CPU 0 instructions: 490000001 cycles: 224411018 heartbeat IPC: 2.52 cumulative IPC: 2.076 (Simulation time: 04 hr 12 min 34 sec)
Heartbeat CPU 0 instructions: 500000002 cycles: 228196642 heartbeat IPC: 2.642 cumulative IPC: 2.086 (Simulation time: 04 hr 17 min 17 sec)
Heartbeat CPU 0 instructions: 510000000 cycles: 231795192 heartbeat IPC: 2.779 cumulative IPC: 2.098 (Simulation time: 04 hr 21 min 50 sec)
Heartbeat CPU 0 instructions: 520000000 cycles: 235498226 heartbeat IPC: 2.7 cumulative IPC: 2.108 (Simulation time: 04 hr 26 min 25 sec)
Heartbeat CPU 0 instructions: 530000001 cycles: 242309831 heartbeat IPC: 1.468 cumulative IPC: 2.089 (Simulation time: 04 hr 33 min 08 sec)
Heartbeat CPU 0 instructions: 540000000 cycles: 249310839 heartbeat IPC: 1.428 cumulative IPC: 2.069 (Simulation time: 04 hr 40 min 08 sec)
Heartbeat CPU 0 instructions: 550000004 cycles: 256763350 heartbeat IPC: 1.342 cumulative IPC: 2.047 (Simulation time: 04 hr 47 min 23 sec)
Heartbeat CPU 0 instructions: 560000004 cycles: 260606851 heartbeat IPC: 2.602 cumulative IPC: 2.056 (Simulation time: 04 hr 52 min 03 sec)
Heartbeat CPU 0 instructions: 570000001 cycles: 263696441 heartbeat IPC: 3.237 cumulative IPC: 2.07 (Simulation time: 04 hr 56 min 23 sec)
Heartbeat CPU 0 instructions: 580000003 cycles: 267150438 heartbeat IPC: 2.895 cumulative IPC: 2.081 (Simulation time: 05 hr 00 min 48 sec)
Heartbeat CPU 0 instructions: 590000002 cycles: 270701748 heartbeat IPC: 2.816 cumulative IPC: 2.091 (Simulation time: 05 hr 05 min 19 sec)
Heartbeat CPU 0 instructions: 600000003 cycles: 273727477 heartbeat IPC: 3.305 cumulative IPC: 2.105 (Simulation time: 05 hr 09 min 37 sec)
Heartbeat CPU 0 instructions: 610000001 cycles: 277183381 heartbeat IPC: 2.894 cumulative IPC: 2.116 (Simulation time: 05 hr 14 min 05 sec)
Heartbeat CPU 0 instructions: 620000000 cycles: 281154449 heartbeat IPC: 2.518 cumulative IPC: 2.122 (Simulation time: 05 hr 18 min 51 sec)
Heartbeat CPU 0 instructions: 630000002 cycles: 284486131 heartbeat IPC: 3.001 cumulative IPC: 2.132 (Simulation time: 05 hr 23 min 16 sec)
Heartbeat CPU 0 instructions: 640000004 cycles: 288455164 heartbeat IPC: 2.52 cumulative IPC: 2.138 (Simulation time: 05 hr 28 min 13 sec)
Heartbeat CPU 0 instructions: 650000001 cycles: 292258270 heartbeat IPC: 2.629 cumulative IPC: 2.145 (Simulation time: 05 hr 32 min 51 sec)
Simulation finished CPU 0 instructions: 600000001 cycles: 279758209 cumulative IPC: 2.145 (Simulation time: 05 hr 32 min 51 sec)
Simulation complete CPU 0 instructions: 600000001 cycles: 279758209 cumulative IPC: 2.145 (Simulation time: 05 hr 32 min 51 sec)

ChampSim completed all CPUs

=== Simulation ===
CPU 0 runs traces/400.perlbench-50B.champsimtrace.xz
Region of Interest Statistics

CPU 0 cumulative IPC: 2.145 instructions: 600000001 cycles: 279758209
CPU 0 Branch Prediction Accuracy: 96.2% MPKI: 7.839 Average ROB Occupancy at Mispredict: 42.97
Branch type MPKI
BRANCH_DIRECT_JUMP: 0.0176
BRANCH_INDIRECT: 0.38
BRANCH_CONDITIONAL: 6.99
BRANCH_DIRECT_CALL: 0.0067
BRANCH_INDIRECT_CALL: 0.431
BRANCH_RETURN: 0.0161

LLC TOTAL        ACCESS:    1353790 HIT:    1167008 MISS:     186782
LLC LOAD         ACCESS:     578549 HIT:     497973 MISS:      80576
LLC RFO          ACCESS:      47378 HIT:      37807 MISS:       9571
LLC PREFETCH     ACCESS:     578549 HIT:     492244 MISS:      86305
LLC WRITE        ACCESS:     127227 HIT:     126725 MISS:        502
LLC TRANSLATION  ACCESS:      22087 HIT:      12259 MISS:       9828
LLC PREFETCH REQUESTED:     578549 ISSUED:     578549 USEFUL:      31877 USELESS:      12313
LLC AVERAGE MISS LATENCY: 467.2 cycles
cpu0_DTLB TOTAL        ACCESS:  146525882 HIT:  145221200 MISS:    1304682
cpu0_DTLB LOAD         ACCESS:  146525882 HIT:  145221200 MISS:    1304682
cpu0_DTLB RFO          ACCESS:          0 HIT:          0 MISS:          0
cpu0_DTLB PREFETCH     ACCESS:          0 HIT:          0 MISS:          0
cpu0_DTLB WRITE        ACCESS:          0 HIT:          0 MISS:          0
cpu0_DTLB TRANSLATION  ACCESS:          0 HIT:          0 MISS:          0
cpu0_DTLB PREFETCH REQUESTED:          0 ISSUED:          0 USEFUL:          0 USELESS:          0
cpu0_DTLB AVERAGE MISS LATENCY: 10.23 cycles
cpu0_ITLB TOTAL        ACCESS:    8983856 HIT:    8799363 MISS:     184493
cpu0_ITLB LOAD         ACCESS:    8983856 HIT:    8799363 MISS:     184493
cpu0_ITLB RFO          ACCESS:          0 HIT:          0 MISS:          0
cpu0_ITLB PREFETCH     ACCESS:          0 HIT:          0 MISS:          0
cpu0_ITLB WRITE        ACCESS:          0 HIT:          0 MISS:          0
cpu0_ITLB TRANSLATION  ACCESS:          0 HIT:          0 MISS:          0
cpu0_ITLB PREFETCH REQUESTED:          0 ISSUED:          0 USEFUL:          0 USELESS:          0
cpu0_ITLB AVERAGE MISS LATENCY: 2.953 cycles
cpu0_L1D TOTAL        ACCESS:  193330516 HIT:  189702737 MISS:    3627779
cpu0_L1D LOAD         ACCESS:  107484222 HIT:  104493382 MISS:    2990840
cpu0_L1D RFO          ACCESS:          0 HIT:          0 MISS:          0
cpu0_L1D PREFETCH     ACCESS:          0 HIT:          0 MISS:          0
cpu0_L1D WRITE        ACCESS:   85817773 HIT:   85207928 MISS:     609845
cpu0_L1D TRANSLATION  ACCESS:      28521 HIT:       1427 MISS:      27094
cpu0_L1D PREFETCH REQUESTED:          0 ISSUED:          0 USEFUL:          0 USELESS:          0
cpu0_L1D AVERAGE MISS LATENCY: 20.91 cycles
cpu0_L1I TOTAL        ACCESS:   10418809 HIT:    8657175 MISS:    1761634
cpu0_L1I LOAD         ACCESS:   10418809 HIT:    8657175 MISS:    1761634
cpu0_L1I RFO          ACCESS:          0 HIT:          0 MISS:          0
cpu0_L1I PREFETCH     ACCESS:          0 HIT:          0 MISS:          0
cpu0_L1I WRITE        ACCESS:          0 HIT:          0 MISS:          0
cpu0_L1I TRANSLATION  ACCESS:          0 HIT:          0 MISS:          0
cpu0_L1I PREFETCH REQUESTED:          0 ISSUED:          0 USEFUL:          0 USELESS:          0
cpu0_L1I AVERAGE MISS LATENCY: 9.057 cycles
cpu0_L2C TOTAL        ACCESS:    3834825 HIT:    3183733 MISS:     651092
cpu0_L2C LOAD         ACCESS:    3105056 HIT:    2526507 MISS:     578549
cpu0_L2C RFO          ACCESS:     191498 HIT:     144119 MISS:      47379
cpu0_L2C PREFETCH     ACCESS:          0 HIT:          0 MISS:          0
cpu0_L2C WRITE        ACCESS:     511242 HIT:     508165 MISS:       3077
cpu0_L2C TRANSLATION  ACCESS:      27029 HIT:       4942 MISS:      22087
cpu0_L2C PREFETCH REQUESTED:          0 ISSUED:          0 USEFUL:          0 USELESS:          0
cpu0_L2C AVERAGE MISS LATENCY: 98.43 cycles
cpu0_STLB TOTAL        ACCESS:    1008220 HIT:     981527 MISS:      26693
cpu0_STLB LOAD         ACCESS:    1008220 HIT:     981527 MISS:      26693
cpu0_STLB RFO          ACCESS:          0 HIT:          0 MISS:          0
cpu0_STLB PREFETCH     ACCESS:          0 HIT:          0 MISS:          0
cpu0_STLB WRITE        ACCESS:          0 HIT:          0 MISS:          0
cpu0_STLB TRANSLATION  ACCESS:          0 HIT:          0 MISS:          0
cpu0_STLB PREFETCH REQUESTED:          0 ISSUED:          0 USEFUL:          0 USELESS:          0
cpu0_STLB AVERAGE MISS LATENCY: 274 cycles

DRAM Statistics

Channel 0 RQ ROW_BUFFER_HIT:      45146
  ROW_BUFFER_MISS:     113902
 AVG DBUS CONGESTED CYCLE: 3.813
WQ ROW_BUFFER_HIT: Channel 0 
  ROW_BUFFER_MISS:       1858
  FULL:       2930
