WARNING: physical memory size is smaller than virtual memory size.

*** ChampSim Multicore Out-of-Order Simulator ***
Warmup Instructions: 50000000
Simulation Instructions: 600000000
Number of CPUs: 1
Page size: 4096

Off-chip DRAM Size: 4 GiB Channels: 1 Width: 64-bit Data Race: 3200 MT/s
Heartbeat CPU 0 instructions: 10000000 cycles: 2500061 heartbeat IPC: 4 cumulative IPC: 4 (Simulation time: 00 hr 00 min 34 sec)
Heartbeat CPU 0 instructions: 20000000 cycles: 5000061 heartbeat IPC: 4 cumulative IPC: 4 (Simulation time: 00 hr 01 min 07 sec)
Heartbeat CPU 0 instructions: 30000000 cycles: 7500061 heartbeat IPC: 4 cumulative IPC: 4 (Simulation time: 00 hr 01 min 41 sec)
Heartbeat CPU 0 instructions: 40000000 cycles: 10000061 heartbeat IPC: 4 cumulative IPC: 4 (Simulation time: 00 hr 02 min 14 sec)
Heartbeat CPU 0 instructions: 50000000 cycles: 12500061 heartbeat IPC: 4 cumulative IPC: 4 (Simulation time: 00 hr 02 min 48 sec)
Warmup finished CPU 0 instructions: 50000000 cycles: 12500062 cumulative IPC: 4 (Simulation time: 00 hr 02 min 48 sec)
Warmup complete CPU 0 instructions: 50000000 cycles: 12500062 cumulative IPC: 4 (Simulation time: 00 hr 02 min 48 sec)
Heartbeat CPU 0 instructions: 60000002 cycles: 16907366 heartbeat IPC: 2.269 cumulative IPC: 2.269 (Simulation time: 00 hr 03 min 37 sec)
Heartbeat CPU 0 instructions: 70000003 cycles: 21889050 heartbeat IPC: 2.007 cumulative IPC: 2.13 (Simulation time: 00 hr 04 min 26 sec)
Heartbeat CPU 0 instructions: 80000001 cycles: 27230745 heartbeat IPC: 1.872 cumulative IPC: 2.037 (Simulation time: 00 hr 05 min 15 sec)
Heartbeat CPU 0 instructions: 90000000 cycles: 31527294 heartbeat IPC: 2.327 cumulative IPC: 2.102 (Simulation time: 00 hr 05 min 57 sec)
Heartbeat CPU 0 instructions: 100000003 cycles: 36379334 heartbeat IPC: 2.061 cumulative IPC: 2.094 (Simulation time: 00 hr 06 min 41 sec)
Heartbeat CPU 0 instructions: 110000002 cycles: 41247374 heartbeat IPC: 2.054 cumulative IPC: 2.087 (Simulation time: 00 hr 07 min 25 sec)
Heartbeat CPU 0 instructions: 120000001 cycles: 46240828 heartbeat IPC: 2.003 cumulative IPC: 2.075 (Simulation time: 00 hr 08 min 10 sec)
Heartbeat CPU 0 instructions: 130000003 cycles: 50807189 heartbeat IPC: 2.19 cumulative IPC: 2.088 (Simulation time: 00 hr 08 min 53 sec)
Heartbeat CPU 0 instructions: 140000002 cycles: 55694832 heartbeat IPC: 2.046 cumulative IPC: 2.084 (Simulation time: 00 hr 09 min 36 sec)
Heartbeat CPU 0 instructions: 150000001 cycles: 60360024 heartbeat IPC: 2.144 cumulative IPC: 2.089 (Simulation time: 00 hr 10 min 18 sec)
Heartbeat CPU 0 instructions: 160000000 cycles: 64996045 heartbeat IPC: 2.157 cumulative IPC: 2.095 (Simulation time: 00 hr 11 min 00 sec)
Heartbeat CPU 0 instructions: 170000000 cycles: 70325364 heartbeat IPC: 1.876 cumulative IPC: 2.075 (Simulation time: 00 hr 11 min 46 sec)
Heartbeat CPU 0 instructions: 180000001 cycles: 76043102 heartbeat IPC: 1.749 cumulative IPC: 2.046 (Simulation time: 00 hr 12 min 33 sec)
Heartbeat CPU 0 instructions: 190000002 cycles: 80511237 heartbeat IPC: 2.238 cumulative IPC: 2.058 (Simulation time: 00 hr 13 min 15 sec)
Heartbeat CPU 0 instructions: 200000002 cycles: 85411245 heartbeat IPC: 2.041 cumulative IPC: 2.057 (Simulation time: 00 hr 13 min 58 sec)
Heartbeat CPU 0 instructions: 210000000 cycles: 90413026 heartbeat IPC: 1.999 cumulative IPC: 2.054 (Simulation time: 00 hr 14 min 42 sec)
Heartbeat CPU 0 instructions: 220000001 cycles: 95334767 heartbeat IPC: 2.032 cumulative IPC: 2.052 (Simulation time: 00 hr 15 min 25 sec)
Heartbeat CPU 0 instructions: 230000002 cycles: 100578650 heartbeat IPC: 1.907 cumulative IPC: 2.044 (Simulation time: 00 hr 16 min 11 sec)
Heartbeat CPU 0 instructions: 240000001 cycles: 105540806 heartbeat IPC: 2.015 cumulative IPC: 2.042 (Simulation time: 00 hr 16 min 56 sec)
Heartbeat CPU 0 instructions: 250000003 cycles: 110715200 heartbeat IPC: 1.933 cumulative IPC: 2.036 (Simulation time: 00 hr 17 min 40 sec)
Heartbeat CPU 0 instructions: 260000001 cycles: 115571230 heartbeat IPC: 2.059 cumulative IPC: 2.037 (Simulation time: 00 hr 18 min 24 sec)
Heartbeat CPU 0 instructions: 270000000 cycles: 123225925 heartbeat IPC: 1.306 cumulative IPC: 1.987 (Simulation time: 00 hr 19 min 22 sec)
Heartbeat CPU 0 instructions: 280000000 cycles: 133946193 heartbeat IPC: 0.9328 cumulative IPC: 1.894 (Simulation time: 00 hr 20 min 37 sec)
Heartbeat CPU 0 instructions: 290000001 cycles: 143136317 heartbeat IPC: 1.088 cumulative IPC: 1.837 (Simulation time: 00 hr 21 min 45 sec)
Heartbeat CPU 0 instructions: 300000003 cycles: 150503582 heartbeat IPC: 1.357 cumulative IPC: 1.812 (Simulation time: 00 hr 22 min 46 sec)
Heartbeat CPU 0 instructions: 310000004 cycles: 160757115 heartbeat IPC: 0.9753 cumulative IPC: 1.754 (Simulation time: 00 hr 23 min 59 sec)
Heartbeat CPU 0 instructions: 320000004 cycles: 166318990 heartbeat IPC: 1.798 cumulative IPC: 1.755 (Simulation time: 00 hr 24 min 49 sec)
Heartbeat CPU 0 instructions: 330000000 cycles: 171527074 heartbeat IPC: 1.92 cumulative IPC: 1.761 (Simulation time: 00 hr 25 min 35 sec)
Heartbeat CPU 0 instructions: 340000001 cycles: 176213861 heartbeat IPC: 2.134 cumulative IPC: 1.771 (Simulation time: 00 hr 26 min 18 sec)
Heartbeat CPU 0 instructions: 350000000 cycles: 181084971 heartbeat IPC: 2.053 cumulative IPC: 1.78 (Simulation time: 00 hr 27 min 03 sec)
Heartbeat CPU 0 instructions: 360000003 cycles: 185759235 heartbeat IPC: 2.139 cumulative IPC: 1.789 (Simulation time: 00 hr 27 min 46 sec)
Heartbeat CPU 0 instructions: 370000001 cycles: 190429516 heartbeat IPC: 2.141 cumulative IPC: 1.798 (Simulation time: 00 hr 28 min 29 sec)
Heartbeat CPU 0 instructions: 380000004 cycles: 195399407 heartbeat IPC: 2.012 cumulative IPC: 1.804 (Simulation time: 00 hr 29 min 13 sec)
Heartbeat CPU 0 instructions: 390000002 cycles: 200268445 heartbeat IPC: 2.054 cumulative IPC: 1.811 (Simulation time: 00 hr 29 min 57 sec)
Heartbeat CPU 0 instructions: 400000000 cycles: 205237128 heartbeat IPC: 2.013 cumulative IPC: 1.816 (Simulation time: 00 hr 30 min 42 sec)
Heartbeat CPU 0 instructions: 410000000 cycles: 211296723 heartbeat IPC: 1.65 cumulative IPC: 1.811 (Simulation time: 00 hr 31 min 34 sec)
Heartbeat CPU 0 instructions: 420000001 cycles: 218520831 heartbeat IPC: 1.384 cumulative IPC: 1.796 (Simulation time: 00 hr 32 min 33 sec)
Heartbeat CPU 0 instructions: 430000000 cycles: 225098378 heartbeat IPC: 1.52 cumulative IPC: 1.787 (Simulation time: 00 hr 33 min 30 sec)
Heartbeat CPU 0 instructions: 440000002 cycles: 231580481 heartbeat IPC: 1.543 cumulative IPC: 1.78 (Simulation time: 00 hr 34 min 25 sec)
Heartbeat CPU 0 instructions: 450000000 cycles: 237927776 heartbeat IPC: 1.575 cumulative IPC: 1.774 (Simulation time: 00 hr 35 min 19 sec)
Heartbeat CPU 0 instructions: 460000002 cycles: 245518589 heartbeat IPC: 1.317 cumulative IPC: 1.76 (Simulation time: 00 hr 36 min 19 sec)
Heartbeat CPU 0 instructions: 470000000 cycles: 252079331 heartbeat IPC: 1.524 cumulative IPC: 1.753 (Simulation time: 00 hr 37 min 14 sec)
Heartbeat CPU 0 instructions: 480000000 cycles: 256985697 heartbeat IPC: 2.038 cumulative IPC: 1.759 (Simulation time: 00 hr 37 min 59 sec)
Heartbeat CPU 0 instructions: 490000001 cycles: 261842154 heartbeat IPC: 2.059 cumulative IPC: 1.765 (Simulation time: 00 hr 38 min 43 sec)
Heartbeat CPU 0 instructions: 500000002 cycles: 266682166 heartbeat IPC: 2.066 cumulative IPC: 1.77 (Simulation time: 00 hr 39 min 27 sec)
Heartbeat CPU 0 instructions: 510000000 cycles: 271622498 heartbeat IPC: 2.024 cumulative IPC: 1.775 (Simulation time: 00 hr 40 min 11 sec)
Heartbeat CPU 0 instructions: 520000000 cycles: 276623179 heartbeat IPC: 2 cumulative IPC: 1.779 (Simulation time: 00 hr 40 min 55 sec)
Heartbeat CPU 0 instructions: 530000001 cycles: 283644966 heartbeat IPC: 1.424 cumulative IPC: 1.77 (Simulation time: 00 hr 41 min 51 sec)
Heartbeat CPU 0 instructions: 540000000 cycles: 290471910 heartbeat IPC: 1.465 cumulative IPC: 1.763 (Simulation time: 00 hr 42 min 47 sec)
Heartbeat CPU 0 instructions: 550000002 cycles: 297613581 heartbeat IPC: 1.4 cumulative IPC: 1.754 (Simulation time: 00 hr 43 min 43 sec)
Heartbeat CPU 0 instructions: 560000004 cycles: 301983407 heartbeat IPC: 2.288 cumulative IPC: 1.762 (Simulation time: 00 hr 44 min 20 sec)
Heartbeat CPU 0 instructions: 570000001 cycles: 306330518 heartbeat IPC: 2.3 cumulative IPC: 1.77 (Simulation time: 00 hr 44 min 57 sec)
Heartbeat CPU 0 instructions: 580000003 cycles: 310451220 heartbeat IPC: 2.427 cumulative IPC: 1.779 (Simulation time: 00 hr 45 min 33 sec)
Heartbeat CPU 0 instructions: 590000001 cycles: 315247605 heartbeat IPC: 2.085 cumulative IPC: 1.784 (Simulation time: 00 hr 46 min 10 sec)
Heartbeat CPU 0 instructions: 600000003 cycles: 319829640 heartbeat IPC: 2.182 cumulative IPC: 1.79 (Simulation time: 00 hr 46 min 43 sec)
Heartbeat CPU 0 instructions: 610000001 cycles: 324615898 heartbeat IPC: 2.089 cumulative IPC: 1.794 (Simulation time: 00 hr 47 min 11 sec)
Heartbeat CPU 0 instructions: 620000000 cycles: 329624217 heartbeat IPC: 1.997 cumulative IPC: 1.797 (Simulation time: 00 hr 47 min 37 sec)
Heartbeat CPU 0 instructions: 630000002 cycles: 333826404 heartbeat IPC: 2.38 cumulative IPC: 1.805 (Simulation time: 00 hr 47 min 59 sec)
Heartbeat CPU 0 instructions: 640000004 cycles: 339095263 heartbeat IPC: 1.898 cumulative IPC: 1.807 (Simulation time: 00 hr 48 min 21 sec)
Heartbeat CPU 0 instructions: 650000001 cycles: 343834454 heartbeat IPC: 2.11 cumulative IPC: 1.811 (Simulation time: 00 hr 48 min 40 sec)
Simulation finished CPU 0 instructions: 600000001 cycles: 331334393 cumulative IPC: 1.811 (Simulation time: 00 hr 48 min 40 sec)
Simulation complete CPU 0 instructions: 600000001 cycles: 331334393 cumulative IPC: 1.811 (Simulation time: 00 hr 48 min 40 sec)

ChampSim completed all CPUs

=== Simulation ===
CPU 0 runs traces/400.perlbench-50B.champsimtrace.xz
Region of Interest Statistics

CPU 0 cumulative IPC: 1.811 instructions: 600000001 cycles: 331334393
CPU 0 Branch Prediction Accuracy: 93.83% MPKI: 12.71 Average ROB Occupancy at Mispredict: 29.17
Branch type MPKI
BRANCH_DIRECT_JUMP: 0.0176
BRANCH_INDIRECT: 0.38
BRANCH_CONDITIONAL: 11.9
BRANCH_DIRECT_CALL: 0.0067
BRANCH_INDIRECT_CALL: 0.431
BRANCH_RETURN: 0.0161

LLC TOTAL        ACCESS:     850210 HIT:     726186 MISS:     124024
LLC LOAD         ACCESS:     587083 HIT:     493182 MISS:      93901
LLC RFO          ACCESS:      47468 HIT:      37974 MISS:       9494
LLC PREFETCH     ACCESS:      65430 HIT:      54092 MISS:      11338
LLC WRITE        ACCESS:     128145 HIT:     128045 MISS:        100
LLC TRANSLATION  ACCESS:      22084 HIT:      12893 MISS:       9191
LLC PREFETCH REQUESTED:      65430 ISSUED:      65430 USEFUL:       7159 USELESS:        289
LLC AVERAGE MISS LATENCY: 474.3 cycles
cpu0_DTLB TOTAL        ACCESS:  156793417 HIT:  155493324 MISS:    1300093
cpu0_DTLB LOAD         ACCESS:  156793417 HIT:  155493324 MISS:    1300093
cpu0_DTLB RFO          ACCESS:          0 HIT:          0 MISS:          0
cpu0_DTLB PREFETCH     ACCESS:          0 HIT:          0 MISS:          0
cpu0_DTLB WRITE        ACCESS:          0 HIT:          0 MISS:          0
cpu0_DTLB TRANSLATION  ACCESS:          0 HIT:          0 MISS:          0
cpu0_DTLB PREFETCH REQUESTED:          0 ISSUED:          0 USEFUL:          0 USELESS:          0
cpu0_DTLB AVERAGE MISS LATENCY: 9.973 cycles
cpu0_ITLB TOTAL        ACCESS:    8932913 HIT:    8734324 MISS:     198589
cpu0_ITLB LOAD         ACCESS:    8932913 HIT:    8734324 MISS:     198589
cpu0_ITLB RFO          ACCESS:          0 HIT:          0 MISS:          0
cpu0_ITLB PREFETCH     ACCESS:          0 HIT:          0 MISS:          0
cpu0_ITLB WRITE        ACCESS:          0 HIT:          0 MISS:          0
cpu0_ITLB TRANSLATION  ACCESS:          0 HIT:          0 MISS:          0
cpu0_ITLB PREFETCH REQUESTED:          0 ISSUED:          0 USEFUL:          0 USELESS:          0
cpu0_ITLB AVERAGE MISS LATENCY: 2.611 cycles
cpu0_L1D TOTAL        ACCESS:  203655767 HIT:  200017629 MISS:    3638138
cpu0_L1D LOAD         ACCESS:  117978647 HIT:  114981978 MISS:    2996669
cpu0_L1D RFO          ACCESS:          0 HIT:          0 MISS:          0
cpu0_L1D PREFETCH     ACCESS:          0 HIT:          0 MISS:          0
cpu0_L1D WRITE        ACCESS:   85648574 HIT:   85034244 MISS:     614330
cpu0_L1D TRANSLATION  ACCESS:      28546 HIT:       1407 MISS:      27139
cpu0_L1D PREFETCH REQUESTED:          0 ISSUED:          0 USEFUL:          0 USELESS:          0
cpu0_L1D AVERAGE MISS LATENCY: 21.33 cycles
cpu0_L1I TOTAL        ACCESS:   10371524 HIT:    8574067 MISS:    1797457
cpu0_L1I LOAD         ACCESS:   10371524 HIT:    8574067 MISS:    1797457
cpu0_L1I RFO          ACCESS:          0 HIT:          0 MISS:          0
cpu0_L1I PREFETCH     ACCESS:          0 HIT:          0 MISS:          0
cpu0_L1I WRITE        ACCESS:          0 HIT:          0 MISS:          0
cpu0_L1I TRANSLATION  ACCESS:          0 HIT:          0 MISS:          0
cpu0_L1I PREFETCH REQUESTED:          0 ISSUED:          0 USEFUL:          0 USELESS:          0
cpu0_L1I AVERAGE MISS LATENCY: 9.212 cycles
cpu0_L2C TOTAL        ACCESS:    3837245 HIT:    3177367 MISS:     659878
cpu0_L2C LOAD         ACCESS:    3106498 HIT:    2519415 MISS:     587083
cpu0_L2C RFO          ACCESS:     191752 HIT:     144284 MISS:      47468
cpu0_L2C PREFETCH     ACCESS:          0 HIT:          0 MISS:          0
cpu0_L2C WRITE        ACCESS:     511931 HIT:     508688 MISS:       3243
cpu0_L2C TRANSLATION  ACCESS:      27064 HIT:       4980 MISS:      22084
cpu0_L2C PREFETCH REQUESTED:          0 ISSUED:          0 USEFUL:          0 USELESS:          0
cpu0_L2C AVERAGE MISS LATENCY: 100.6 cycles
cpu0_STLB TOTAL        ACCESS:    1009214 HIT:     982520 MISS:      26694
cpu0_STLB LOAD         ACCESS:    1009214 HIT:     982520 MISS:      26694
cpu0_STLB RFO          ACCESS:          0 HIT:          0 MISS:          0
cpu0_STLB PREFETCH     ACCESS:          0 HIT:          0 MISS:          0
cpu0_STLB WRITE        ACCESS:          0 HIT:          0 MISS:          0
cpu0_STLB TRANSLATION  ACCESS:          0 HIT:          0 MISS:          0
cpu0_STLB PREFETCH REQUESTED:          0 ISSUED:          0 USEFUL:          0 USELESS:          0
cpu0_STLB AVERAGE MISS LATENCY: 257.5 cycles

DRAM Statistics

Channel 0 RQ ROW_BUFFER_HIT:      37237
  ROW_BUFFER_MISS:      84601
 AVG DBUS CONGESTED CYCLE: 3.737
WQ ROW_BUFFER_HIT: Channel 0 
  ROW_BUFFER_MISS:        998
  FULL:       1645
