WARNING: physical memory size is smaller than virtual memory size.

*** ChampSim Multicore Out-of-Order Simulator ***
Warmup Instructions: 50000000
Simulation Instructions: 600000000
Number of CPUs: 1
Page size: 4096

Off-chip DRAM Size: 4 GiB Channels: 1 Width: 64-bit Data Race: 3200 MT/s
Heartbeat CPU 0 instructions: 10000001 cycles: 2500318 heartbeat IPC: 3.999 cumulative IPC: 3.999 (Simulation time: 00 hr 03 min 39 sec)
Heartbeat CPU 0 instructions: 20000002 cycles: 5037136 heartbeat IPC: 3.942 cumulative IPC: 3.971 (Simulation time: 00 hr 07 min 24 sec)
Heartbeat CPU 0 instructions: 30000002 cycles: 7537136 heartbeat IPC: 4 cumulative IPC: 3.98 (Simulation time: 00 hr 10 min 47 sec)
Heartbeat CPU 0 instructions: 40000002 cycles: 10037136 heartbeat IPC: 4 cumulative IPC: 3.985 (Simulation time: 00 hr 14 min 14 sec)
Heartbeat CPU 0 instructions: 50000002 cycles: 12537136 heartbeat IPC: 4 cumulative IPC: 3.988 (Simulation time: 00 hr 17 min 40 sec)
Warmup finished CPU 0 instructions: 50000002 cycles: 12537137 cumulative IPC: 3.988 (Simulation time: 00 hr 17 min 40 sec)
Warmup complete CPU 0 instructions: 50000002 cycles: 12537137 cumulative IPC: 3.988 (Simulation time: 00 hr 17 min 40 sec)
Heartbeat CPU 0 instructions: 60000000 cycles: 17125902 heartbeat IPC: 2.179 cumulative IPC: 2.179 (Simulation time: 00 hr 22 min 42 sec)
Heartbeat CPU 0 instructions: 70000004 cycles: 21380886 heartbeat IPC: 2.35 cumulative IPC: 2.261 (Simulation time: 00 hr 27 min 36 sec)
Heartbeat CPU 0 instructions: 80000001 cycles: 25959305 heartbeat IPC: 2.184 cumulative IPC: 2.235 (Simulation time: 00 hr 32 min 39 sec)
Heartbeat CPU 0 instructions: 90000001 cycles: 30073697 heartbeat IPC: 2.43 cumulative IPC: 2.281 (Simulation time: 00 hr 37 min 30 sec)
Heartbeat CPU 0 instructions: 100000000 cycles: 34111335 heartbeat IPC: 2.477 cumulative IPC: 2.318 (Simulation time: 00 hr 42 min 16 sec)
Heartbeat CPU 0 instructions: 110000000 cycles: 38328766 heartbeat IPC: 2.371 cumulative IPC: 2.326 (Simulation time: 00 hr 47 min 05 sec)
Heartbeat CPU 0 instructions: 120000001 cycles: 42324607 heartbeat IPC: 2.503 cumulative IPC: 2.35 (Simulation time: 00 hr 51 min 49 sec)
Heartbeat CPU 0 instructions: 130000001 cycles: 46041206 heartbeat IPC: 2.691 cumulative IPC: 2.388 (Simulation time: 00 hr 56 min 26 sec)
Heartbeat CPU 0 instructions: 140000001 cycles: 50178916 heartbeat IPC: 2.417 cumulative IPC: 2.391 (Simulation time: 01 hr 01 min 16 sec)
Heartbeat CPU 0 instructions: 150000001 cycles: 54354398 heartbeat IPC: 2.395 cumulative IPC: 2.391 (Simulation time: 01 hr 06 min 12 sec)
Heartbeat CPU 0 instructions: 160000004 cycles: 58742835 heartbeat IPC: 2.279 cumulative IPC: 2.381 (Simulation time: 01 hr 11 min 08 sec)
Heartbeat CPU 0 instructions: 170000000 cycles: 65990343 heartbeat IPC: 1.38 cumulative IPC: 2.245 (Simulation time: 01 hr 18 min 01 sec)
Heartbeat CPU 0 instructions: 180000004 cycles: 72453186 heartbeat IPC: 1.547 cumulative IPC: 2.17 (Simulation time: 01 hr 24 min 44 sec)
Heartbeat CPU 0 instructions: 190000001 cycles: 78096430 heartbeat IPC: 1.772 cumulative IPC: 2.135 (Simulation time: 01 hr 30 min 46 sec)
Heartbeat CPU 0 instructions: 200000004 cycles: 81584455 heartbeat IPC: 2.867 cumulative IPC: 2.172 (Simulation time: 01 hr 35 min 07 sec)
Heartbeat CPU 0 instructions: 210000001 cycles: 85273655 heartbeat IPC: 2.711 cumulative IPC: 2.2 (Simulation time: 01 hr 39 min 40 sec)
Heartbeat CPU 0 instructions: 220000000 cycles: 89090385 heartbeat IPC: 2.62 cumulative IPC: 2.221 (Simulation time: 01 hr 44 min 15 sec)
Heartbeat CPU 0 instructions: 230000002 cycles: 93309321 heartbeat IPC: 2.37 cumulative IPC: 2.228 (Simulation time: 01 hr 49 min 00 sec)
Heartbeat CPU 0 instructions: 240000000 cycles: 97224853 heartbeat IPC: 2.554 cumulative IPC: 2.244 (Simulation time: 01 hr 53 min 38 sec)
Heartbeat CPU 0 instructions: 250000000 cycles: 101201217 heartbeat IPC: 2.515 cumulative IPC: 2.256 (Simulation time: 01 hr 58 min 19 sec)
Heartbeat CPU 0 instructions: 260000000 cycles: 105046109 heartbeat IPC: 2.601 cumulative IPC: 2.27 (Simulation time: 02 hr 02 min 54 sec)
Heartbeat CPU 0 instructions: 270000002 cycles: 108668014 heartbeat IPC: 2.761 cumulative IPC: 2.289 (Simulation time: 02 hr 07 min 25 sec)
Heartbeat CPU 0 instructions: 280000002 cycles: 112578039 heartbeat IPC: 2.558 cumulative IPC: 2.299 (Simulation time: 02 hr 12 min 04 sec)
Heartbeat CPU 0 instructions: 290000001 cycles: 116267149 heartbeat IPC: 2.711 cumulative IPC: 2.314 (Simulation time: 02 hr 16 min 38 sec)
Heartbeat CPU 0 instructions: 300000003 cycles: 119770457 heartbeat IPC: 2.854 cumulative IPC: 2.331 (Simulation time: 02 hr 21 min 08 sec)
Heartbeat CPU 0 instructions: 310000001 cycles: 123543926 heartbeat IPC: 2.65 cumulative IPC: 2.342 (Simulation time: 02 hr 25 min 42 sec)
Heartbeat CPU 0 instructions: 320000003 cycles: 127344673 heartbeat IPC: 2.631 cumulative IPC: 2.352 (Simulation time: 02 hr 30 min 19 sec)
Heartbeat CPU 0 instructions: 330000003 cycles: 131360436 heartbeat IPC: 2.49 cumulative IPC: 2.356 (Simulation time: 02 hr 35 min 01 sec)
Heartbeat CPU 0 instructions: 340000000 cycles: 137267019 heartbeat IPC: 1.693 cumulative IPC: 2.325 (Simulation time: 02 hr 41 min 08 sec)
Heartbeat CPU 0 instructions: 350000000 cycles: 143798183 heartbeat IPC: 1.531 cumulative IPC: 2.286 (Simulation time: 02 hr 47 min 46 sec)
Heartbeat CPU 0 instructions: 360000004 cycles: 149650575 heartbeat IPC: 1.709 cumulative IPC: 2.261 (Simulation time: 02 hr 53 min 54 sec)
Heartbeat CPU 0 instructions: 370000000 cycles: 152874642 heartbeat IPC: 3.102 cumulative IPC: 2.28 (Simulation time: 02 hr 58 min 10 sec)
Heartbeat CPU 0 instructions: 380000001 cycles: 156086455 heartbeat IPC: 3.114 cumulative IPC: 2.299 (Simulation time: 03 hr 02 min 31 sec)
Heartbeat CPU 0 instructions: 390000004 cycles: 159676708 heartbeat IPC: 2.785 cumulative IPC: 2.311 (Simulation time: 03 hr 06 min 59 sec)
Heartbeat CPU 0 instructions: 400000004 cycles: 163387407 heartbeat IPC: 2.695 cumulative IPC: 2.32 (Simulation time: 03 hr 11 min 32 sec)
Heartbeat CPU 0 instructions: 410000001 cycles: 166804859 heartbeat IPC: 2.926 cumulative IPC: 2.334 (Simulation time: 03 hr 15 min 57 sec)
Heartbeat CPU 0 instructions: 420000003 cycles: 170495611 heartbeat IPC: 2.709 cumulative IPC: 2.342 (Simulation time: 03 hr 20 min 30 sec)
Heartbeat CPU 0 instructions: 430000001 cycles: 173972230 heartbeat IPC: 2.876 cumulative IPC: 2.354 (Simulation time: 03 hr 24 min 58 sec)
Heartbeat CPU 0 instructions: 440000004 cycles: 177763614 heartbeat IPC: 2.638 cumulative IPC: 2.36 (Simulation time: 03 hr 29 min 35 sec)
Heartbeat CPU 0 instructions: 450000002 cycles: 181243107 heartbeat IPC: 2.874 cumulative IPC: 2.371 (Simulation time: 03 hr 34 min 04 sec)
Heartbeat CPU 0 instructions: 460000000 cycles: 184695973 heartbeat IPC: 2.896 cumulative IPC: 2.382 (Simulation time: 03 hr 38 min 41 sec)
Heartbeat CPU 0 instructions: 470000000 cycles: 187974835 heartbeat IPC: 3.05 cumulative IPC: 2.394 (Simulation time: 03 hr 43 min 03 sec)
Heartbeat CPU 0 instructions: 480000003 cycles: 191568372 heartbeat IPC: 2.783 cumulative IPC: 2.402 (Simulation time: 03 hr 47 min 31 sec)
Heartbeat CPU 0 instructions: 490000000 cycles: 195049624 heartbeat IPC: 2.873 cumulative IPC: 2.411 (Simulation time: 03 hr 51 min 56 sec)
Heartbeat CPU 0 instructions: 500000000 cycles: 198605398 heartbeat IPC: 2.812 cumulative IPC: 2.418 (Simulation time: 03 hr 56 min 26 sec)
Heartbeat CPU 0 instructions: 510000003 cycles: 202016389 heartbeat IPC: 2.932 cumulative IPC: 2.428 (Simulation time: 04 hr 00 min 53 sec)
Heartbeat CPU 0 instructions: 520000001 cycles: 205170803 heartbeat IPC: 3.17 cumulative IPC: 2.44 (Simulation time: 04 hr 05 min 12 sec)
Heartbeat CPU 0 instructions: 530000002 cycles: 208636298 heartbeat IPC: 2.886 cumulative IPC: 2.448 (Simulation time: 04 hr 09 min 37 sec)
Heartbeat CPU 0 instructions: 540000000 cycles: 211953077 heartbeat IPC: 3.015 cumulative IPC: 2.457 (Simulation time: 04 hr 14 min 00 sec)
Heartbeat CPU 0 instructions: 550000001 cycles: 215472576 heartbeat IPC: 2.841 cumulative IPC: 2.464 (Simulation time: 04 hr 18 min 32 sec)
Heartbeat CPU 0 instructions: 560000000 cycles: 219127039 heartbeat IPC: 2.736 cumulative IPC: 2.469 (Simulation time: 04 hr 23 min 05 sec)
Heartbeat CPU 0 instructions: 570000004 cycles: 223642198 heartbeat IPC: 2.215 cumulative IPC: 2.463 (Simulation time: 04 hr 28 min 28 sec)
Heartbeat CPU 0 instructions: 580000003 cycles: 229936092 heartbeat IPC: 1.589 cumulative IPC: 2.438 (Simulation time: 04 hr 34 min 56 sec)
Heartbeat CPU 0 instructions: 590000002 cycles: 236633503 heartbeat IPC: 1.493 cumulative IPC: 2.41 (Simulation time: 04 hr 41 min 40 sec)
Heartbeat CPU 0 instructions: 600000000 cycles: 240122470 heartbeat IPC: 2.866 cumulative IPC: 2.417 (Simulation time: 04 hr 46 min 08 sec)
Heartbeat CPU 0 instructions: 610000000 cycles: 243783856 heartbeat IPC: 2.731 cumulative IPC: 2.422 (Simulation time: 04 hr 50 min 40 sec)
Heartbeat CPU 0 instructions: 620000001 cycles: 247108695 heartbeat IPC: 3.008 cumulative IPC: 2.43 (Simulation time: 04 hr 55 min 10 sec)
Heartbeat CPU 0 instructions: 630000002 cycles: 251207057 heartbeat IPC: 2.44 cumulative IPC: 2.43 (Simulation time: 04 hr 59 min 58 sec)
Heartbeat CPU 0 instructions: 640000001 cycles: 255028297 heartbeat IPC: 2.617 cumulative IPC: 2.433 (Simulation time: 05 hr 04 min 38 sec)
Heartbeat CPU 0 instructions: 650000000 cycles: 258714764 heartbeat IPC: 2.713 cumulative IPC: 2.437 (Simulation time: 05 hr 09 min 12 sec)
Simulation finished CPU 0 instructions: 600000001 cycles: 246177629 cumulative IPC: 2.437 (Simulation time: 05 hr 09 min 12 sec)
Simulation complete CPU 0 instructions: 600000001 cycles: 246177629 cumulative IPC: 2.437 (Simulation time: 05 hr 09 min 12 sec)

ChampSim completed all CPUs

=== Simulation ===
CPU 0 runs traces/400.perlbench-41B.champsimtrace.xz
Region of Interest Statistics

CPU 0 cumulative IPC: 2.437 instructions: 600000001 cycles: 246177629
CPU 0 Branch Prediction Accuracy: 96.56% MPKI: 7.112 Average ROB Occupancy at Mispredict: 46.62
Branch type MPKI
BRANCH_DIRECT_JUMP: 0.0123
BRANCH_INDIRECT: 0.323
BRANCH_CONDITIONAL: 6.56
BRANCH_DIRECT_CALL: 0.0043
BRANCH_INDIRECT_CALL: 0.2
BRANCH_RETURN: 0.00828

LLC TOTAL        ACCESS:     540497 HIT:     496765 MISS:      43732
LLC LOAD         ACCESS:     403226 HIT:     370195 MISS:      33031
LLC RFO          ACCESS:      32499 HIT:      28498 MISS:       4001
LLC PREFETCH     ACCESS:          0 HIT:          0 MISS:          0
LLC WRITE        ACCESS:      85561 HIT:      85472 MISS:         89
LLC TRANSLATION  ACCESS:      19211 HIT:      12600 MISS:       6611
LLC PREFETCH REQUESTED:          0 ISSUED:          0 USEFUL:          0 USELESS:          0
LLC AVERAGE MISS LATENCY: 487.7 cycles
cpu0_DTLB TOTAL        ACCESS:  141908789 HIT:  141224124 MISS:     684665
cpu0_DTLB LOAD         ACCESS:  141908789 HIT:  141224124 MISS:     684665
cpu0_DTLB RFO          ACCESS:          0 HIT:          0 MISS:          0
cpu0_DTLB PREFETCH     ACCESS:          0 HIT:          0 MISS:          0
cpu0_DTLB WRITE        ACCESS:          0 HIT:          0 MISS:          0
cpu0_DTLB TRANSLATION  ACCESS:          0 HIT:          0 MISS:          0
cpu0_DTLB PREFETCH REQUESTED:          0 ISSUED:          0 USEFUL:          0 USELESS:          0
cpu0_DTLB AVERAGE MISS LATENCY: 10.31 cycles
cpu0_ITLB TOTAL        ACCESS:    4857219 HIT:    4804112 MISS:      53107
cpu0_ITLB LOAD         ACCESS:    4857219 HIT:    4804112 MISS:      53107
cpu0_ITLB RFO          ACCESS:          0 HIT:          0 MISS:          0
cpu0_ITLB PREFETCH     ACCESS:          0 HIT:          0 MISS:          0
cpu0_ITLB WRITE        ACCESS:          0 HIT:          0 MISS:          0
cpu0_ITLB TRANSLATION  ACCESS:          0 HIT:          0 MISS:          0
cpu0_ITLB PREFETCH REQUESTED:          0 ISSUED:          0 USEFUL:          0 USELESS:          0
cpu0_ITLB AVERAGE MISS LATENCY: 4.904 cycles
cpu0_L1D TOTAL        ACCESS:  188596157 HIT:  186918833 MISS:    1677324
cpu0_L1D LOAD         ACCESS:  105229647 HIT:  103916213 MISS:    1313434
cpu0_L1D RFO          ACCESS:          0 HIT:          0 MISS:          0
cpu0_L1D PREFETCH     ACCESS:          0 HIT:          0 MISS:          0
cpu0_L1D WRITE        ACCESS:   83342044 HIT:   83001555 MISS:     340489
cpu0_L1D TRANSLATION  ACCESS:      24466 HIT:       1065 MISS:      23401
cpu0_L1D PREFETCH REQUESTED:          0 ISSUED:          0 USEFUL:          0 USELESS:          0
cpu0_L1D AVERAGE MISS LATENCY: 21.15 cycles
cpu0_L1I TOTAL        ACCESS:    5595269 HIT:    4852025 MISS:     743244
cpu0_L1I LOAD         ACCESS:    5595269 HIT:    4852025 MISS:     743244
cpu0_L1I RFO          ACCESS:          0 HIT:          0 MISS:          0
cpu0_L1I PREFETCH     ACCESS:          0 HIT:          0 MISS:          0
cpu0_L1I WRITE        ACCESS:          0 HIT:          0 MISS:          0
cpu0_L1I TRANSLATION  ACCESS:          0 HIT:          0 MISS:          0
cpu0_L1I PREFETCH REQUESTED:          0 ISSUED:          0 USEFUL:          0 USELESS:          0
cpu0_L1I AVERAGE MISS LATENCY: 8.924 cycles
cpu0_L2C TOTAL        ACCESS:    1666294 HIT:    1209546 MISS:     456748
cpu0_L2C LOAD         ACCESS:    1316070 HIT:     912844 MISS:     403226
cpu0_L2C RFO          ACCESS:      88292 HIT:      55793 MISS:      32499
cpu0_L2C PREFETCH     ACCESS:          0 HIT:          0 MISS:          0
cpu0_L2C WRITE        ACCESS:     238602 HIT:     236790 MISS:       1812
cpu0_L2C TRANSLATION  ACCESS:      23330 HIT:       4119 MISS:      19211
cpu0_L2C PREFETCH REQUESTED:          0 ISSUED:          0 USEFUL:          0 USELESS:          0
cpu0_L2C AVERAGE MISS LATENCY: 66.72 cycles
cpu0_STLB TOTAL        ACCESS:     506517 HIT:     483723 MISS:      22794
cpu0_STLB LOAD         ACCESS:     506517 HIT:     483723 MISS:      22794
cpu0_STLB RFO          ACCESS:          0 HIT:          0 MISS:          0
cpu0_STLB PREFETCH     ACCESS:          0 HIT:          0 MISS:          0
cpu0_STLB WRITE        ACCESS:          0 HIT:          0 MISS:          0
cpu0_STLB TRANSLATION  ACCESS:          0 HIT:          0 MISS:          0
cpu0_STLB PREFETCH REQUESTED:          0 ISSUED:          0 USEFUL:          0 USELESS:          0
cpu0_STLB AVERAGE MISS LATENCY: 177.7 cycles

DRAM Statistics

Channel 0 RQ ROW_BUFFER_HIT:      12943
  ROW_BUFFER_MISS:      30700
 AVG DBUS CONGESTED CYCLE: 3.702
WQ ROW_BUFFER_HIT: Channel 0 
  ROW_BUFFER_MISS:        219
  FULL:        457
