WARNING: physical memory size is smaller than virtual memory size.

*** ChampSim Multicore Out-of-Order Simulator ***
Warmup Instructions: 50000000
Simulation Instructions: 600000000
Number of CPUs: 1
Page size: 4096

Off-chip DRAM Size: 4 GiB Channels: 1 Width: 64-bit Data Race: 3200 MT/s
Heartbeat CPU 0 instructions: 10000001 cycles: 2500318 heartbeat IPC: 3.999 cumulative IPC: 3.999 (Simulation time: 00 hr 00 min 36 sec)
Heartbeat CPU 0 instructions: 20000002 cycles: 5037114 heartbeat IPC: 3.942 cumulative IPC: 3.971 (Simulation time: 00 hr 01 min 14 sec)
Heartbeat CPU 0 instructions: 30000002 cycles: 7537114 heartbeat IPC: 4 cumulative IPC: 3.98 (Simulation time: 00 hr 01 min 48 sec)
Heartbeat CPU 0 instructions: 40000002 cycles: 10037114 heartbeat IPC: 4 cumulative IPC: 3.985 (Simulation time: 00 hr 02 min 23 sec)
Heartbeat CPU 0 instructions: 50000002 cycles: 12537114 heartbeat IPC: 4 cumulative IPC: 3.988 (Simulation time: 00 hr 02 min 56 sec)
Warmup finished CPU 0 instructions: 50000002 cycles: 12537115 cumulative IPC: 3.988 (Simulation time: 00 hr 02 min 56 sec)
Warmup complete CPU 0 instructions: 50000002 cycles: 12537115 cumulative IPC: 3.988 (Simulation time: 00 hr 02 min 56 sec)
Heartbeat CPU 0 instructions: 60000000 cycles: 17679767 heartbeat IPC: 1.945 cumulative IPC: 1.945 (Simulation time: 00 hr 03 min 51 sec)
Heartbeat CPU 0 instructions: 70000002 cycles: 22549170 heartbeat IPC: 2.054 cumulative IPC: 1.998 (Simulation time: 00 hr 04 min 42 sec)
Heartbeat CPU 0 instructions: 80000001 cycles: 27882381 heartbeat IPC: 1.875 cumulative IPC: 1.955 (Simulation time: 00 hr 05 min 35 sec)
Heartbeat CPU 0 instructions: 90000001 cycles: 32727075 heartbeat IPC: 2.064 cumulative IPC: 1.981 (Simulation time: 00 hr 06 min 24 sec)
Heartbeat CPU 0 instructions: 100000000 cycles: 37811571 heartbeat IPC: 1.967 cumulative IPC: 1.978 (Simulation time: 00 hr 07 min 13 sec)
Heartbeat CPU 0 instructions: 110000000 cycles: 42674604 heartbeat IPC: 2.056 cumulative IPC: 1.991 (Simulation time: 00 hr 07 min 58 sec)
Heartbeat CPU 0 instructions: 120000001 cycles: 47846209 heartbeat IPC: 1.934 cumulative IPC: 1.982 (Simulation time: 00 hr 08 min 44 sec)
Heartbeat CPU 0 instructions: 130000001 cycles: 52975384 heartbeat IPC: 1.95 cumulative IPC: 1.978 (Simulation time: 00 hr 09 min 30 sec)
Heartbeat CPU 0 instructions: 140000001 cycles: 58251041 heartbeat IPC: 1.895 cumulative IPC: 1.969 (Simulation time: 00 hr 10 min 16 sec)
Heartbeat CPU 0 instructions: 150000001 cycles: 63538275 heartbeat IPC: 1.891 cumulative IPC: 1.961 (Simulation time: 00 hr 11 min 02 sec)
Heartbeat CPU 0 instructions: 160000004 cycles: 68714611 heartbeat IPC: 1.932 cumulative IPC: 1.958 (Simulation time: 00 hr 11 min 46 sec)
Heartbeat CPU 0 instructions: 170000000 cycles: 76321674 heartbeat IPC: 1.315 cumulative IPC: 1.881 (Simulation time: 00 hr 12 min 44 sec)
Heartbeat CPU 0 instructions: 180000004 cycles: 83330002 heartbeat IPC: 1.427 cumulative IPC: 1.836 (Simulation time: 00 hr 13 min 42 sec)
Heartbeat CPU 0 instructions: 190000001 cycles: 89990710 heartbeat IPC: 1.501 cumulative IPC: 1.808 (Simulation time: 00 hr 14 min 37 sec)
Heartbeat CPU 0 instructions: 200000003 cycles: 94498860 heartbeat IPC: 2.218 cumulative IPC: 1.83 (Simulation time: 00 hr 15 min 18 sec)
Heartbeat CPU 0 instructions: 210000001 cycles: 99212570 heartbeat IPC: 2.121 cumulative IPC: 1.846 (Simulation time: 00 hr 16 min 01 sec)
Heartbeat CPU 0 instructions: 220000000 cycles: 103920078 heartbeat IPC: 2.124 cumulative IPC: 1.86 (Simulation time: 00 hr 16 min 44 sec)
Heartbeat CPU 0 instructions: 230000002 cycles: 108826227 heartbeat IPC: 2.038 cumulative IPC: 1.869 (Simulation time: 00 hr 17 min 27 sec)
Heartbeat CPU 0 instructions: 240000000 cycles: 113432208 heartbeat IPC: 2.171 cumulative IPC: 1.883 (Simulation time: 00 hr 18 min 10 sec)
Heartbeat CPU 0 instructions: 250000000 cycles: 118293301 heartbeat IPC: 2.057 cumulative IPC: 1.891 (Simulation time: 00 hr 18 min 54 sec)
Heartbeat CPU 0 instructions: 260000000 cycles: 123019681 heartbeat IPC: 2.116 cumulative IPC: 1.901 (Simulation time: 00 hr 19 min 37 sec)
Heartbeat CPU 0 instructions: 270000002 cycles: 127704042 heartbeat IPC: 2.135 cumulative IPC: 1.91 (Simulation time: 00 hr 20 min 21 sec)
Heartbeat CPU 0 instructions: 280000002 cycles: 132390956 heartbeat IPC: 2.134 cumulative IPC: 1.919 (Simulation time: 00 hr 21 min 04 sec)
Heartbeat CPU 0 instructions: 290000001 cycles: 137571214 heartbeat IPC: 1.93 cumulative IPC: 1.919 (Simulation time: 00 hr 21 min 50 sec)
Heartbeat CPU 0 instructions: 300000003 cycles: 142348626 heartbeat IPC: 2.093 cumulative IPC: 1.926 (Simulation time: 00 hr 22 min 33 sec)
Heartbeat CPU 0 instructions: 310000001 cycles: 147314486 heartbeat IPC: 2.014 cumulative IPC: 1.929 (Simulation time: 00 hr 23 min 16 sec)
Heartbeat CPU 0 instructions: 320000003 cycles: 152281666 heartbeat IPC: 2.013 cumulative IPC: 1.932 (Simulation time: 00 hr 24 min 00 sec)
Heartbeat CPU 0 instructions: 330000003 cycles: 157229917 heartbeat IPC: 2.021 cumulative IPC: 1.935 (Simulation time: 00 hr 24 min 43 sec)
Heartbeat CPU 0 instructions: 340000000 cycles: 163777293 heartbeat IPC: 1.527 cumulative IPC: 1.917 (Simulation time: 00 hr 25 min 37 sec)
Heartbeat CPU 0 instructions: 350000000 cycles: 170751382 heartbeat IPC: 1.434 cumulative IPC: 1.896 (Simulation time: 00 hr 26 min 34 sec)
Heartbeat CPU 0 instructions: 360000004 cycles: 177340776 heartbeat IPC: 1.518 cumulative IPC: 1.881 (Simulation time: 00 hr 27 min 31 sec)
Heartbeat CPU 0 instructions: 370000000 cycles: 181553259 heartbeat IPC: 2.374 cumulative IPC: 1.893 (Simulation time: 00 hr 28 min 13 sec)
Heartbeat CPU 0 instructions: 380000001 cycles: 186282283 heartbeat IPC: 2.115 cumulative IPC: 1.899 (Simulation time: 00 hr 28 min 57 sec)
Heartbeat CPU 0 instructions: 390000002 cycles: 190972030 heartbeat IPC: 2.132 cumulative IPC: 1.905 (Simulation time: 00 hr 29 min 40 sec)
Heartbeat CPU 0 instructions: 400000004 cycles: 195813860 heartbeat IPC: 2.065 cumulative IPC: 1.91 (Simulation time: 00 hr 30 min 24 sec)
Heartbeat CPU 0 instructions: 410000000 cycles: 200309853 heartbeat IPC: 2.224 cumulative IPC: 1.917 (Simulation time: 00 hr 31 min 06 sec)
Heartbeat CPU 0 instructions: 420000000 cycles: 205101170 heartbeat IPC: 2.087 cumulative IPC: 1.921 (Simulation time: 00 hr 31 min 48 sec)
Heartbeat CPU 0 instructions: 430000001 cycles: 209396459 heartbeat IPC: 2.328 cumulative IPC: 1.93 (Simulation time: 00 hr 32 min 31 sec)
Heartbeat CPU 0 instructions: 440000000 cycles: 214485416 heartbeat IPC: 1.965 cumulative IPC: 1.931 (Simulation time: 00 hr 33 min 16 sec)
Heartbeat CPU 0 instructions: 450000002 cycles: 218924799 heartbeat IPC: 2.253 cumulative IPC: 1.938 (Simulation time: 00 hr 33 min 58 sec)
Heartbeat CPU 0 instructions: 460000000 cycles: 223520300 heartbeat IPC: 2.176 cumulative IPC: 1.943 (Simulation time: 00 hr 34 min 41 sec)
Heartbeat CPU 0 instructions: 470000000 cycles: 228321407 heartbeat IPC: 2.083 cumulative IPC: 1.946 (Simulation time: 00 hr 35 min 25 sec)
Heartbeat CPU 0 instructions: 480000003 cycles: 232891328 heartbeat IPC: 2.188 cumulative IPC: 1.951 (Simulation time: 00 hr 36 min 07 sec)
Heartbeat CPU 0 instructions: 490000000 cycles: 237359916 heartbeat IPC: 2.238 cumulative IPC: 1.957 (Simulation time: 00 hr 36 min 50 sec)
Heartbeat CPU 0 instructions: 500000000 cycles: 242253325 heartbeat IPC: 2.044 cumulative IPC: 1.959 (Simulation time: 00 hr 37 min 34 sec)
Heartbeat CPU 0 instructions: 510000003 cycles: 247652951 heartbeat IPC: 1.852 cumulative IPC: 1.956 (Simulation time: 00 hr 38 min 20 sec)
Heartbeat CPU 0 instructions: 520000001 cycles: 252105851 heartbeat IPC: 2.246 cumulative IPC: 1.962 (Simulation time: 00 hr 39 min 02 sec)
Heartbeat CPU 0 instructions: 530000002 cycles: 257051074 heartbeat IPC: 2.022 cumulative IPC: 1.963 (Simulation time: 00 hr 39 min 47 sec)
Heartbeat CPU 0 instructions: 540000000 cycles: 261967283 heartbeat IPC: 2.034 cumulative IPC: 1.964 (Simulation time: 00 hr 40 min 32 sec)
Heartbeat CPU 0 instructions: 550000001 cycles: 266615097 heartbeat IPC: 2.152 cumulative IPC: 1.968 (Simulation time: 00 hr 41 min 14 sec)
Heartbeat CPU 0 instructions: 560000000 cycles: 271532568 heartbeat IPC: 2.034 cumulative IPC: 1.969 (Simulation time: 00 hr 41 min 58 sec)
Heartbeat CPU 0 instructions: 570000004 cycles: 276954040 heartbeat IPC: 1.845 cumulative IPC: 1.967 (Simulation time: 00 hr 42 min 45 sec)
Heartbeat CPU 0 instructions: 580000003 cycles: 284057457 heartbeat IPC: 1.408 cumulative IPC: 1.952 (Simulation time: 00 hr 43 min 42 sec)
Heartbeat CPU 0 instructions: 590000002 cycles: 291524854 heartbeat IPC: 1.339 cumulative IPC: 1.936 (Simulation time: 00 hr 44 min 40 sec)
Heartbeat CPU 0 instructions: 600000000 cycles: 295873068 heartbeat IPC: 2.3 cumulative IPC: 1.941 (Simulation time: 00 hr 45 min 20 sec)
Heartbeat CPU 0 instructions: 610000002 cycles: 300187349 heartbeat IPC: 2.318 cumulative IPC: 1.947 (Simulation time: 00 hr 45 min 58 sec)
Heartbeat CPU 0 instructions: 620000000 cycles: 304891728 heartbeat IPC: 2.126 cumulative IPC: 1.95 (Simulation time: 00 hr 46 min 38 sec)
Heartbeat CPU 0 instructions: 630000002 cycles: 309817176 heartbeat IPC: 2.03 cumulative IPC: 1.951 (Simulation time: 00 hr 47 min 16 sec)
Heartbeat CPU 0 instructions: 640000001 cycles: 314602899 heartbeat IPC: 2.09 cumulative IPC: 1.953 (Simulation time: 00 hr 47 min 54 sec)
Heartbeat CPU 0 instructions: 650000000 cycles: 319092441 heartbeat IPC: 2.227 cumulative IPC: 1.957 (Simulation time: 00 hr 48 min 28 sec)
Simulation finished CPU 0 instructions: 600000001 cycles: 306555328 cumulative IPC: 1.957 (Simulation time: 00 hr 48 min 28 sec)
Simulation complete CPU 0 instructions: 600000001 cycles: 306555328 cumulative IPC: 1.957 (Simulation time: 00 hr 48 min 28 sec)

ChampSim completed all CPUs

=== Simulation ===
CPU 0 runs traces/400.perlbench-41B.champsimtrace.xz
Region of Interest Statistics

CPU 0 cumulative IPC: 1.957 instructions: 600000001 cycles: 306555328
CPU 0 Branch Prediction Accuracy: 93.95% MPKI: 12.5 Average ROB Occupancy at Mispredict: 29.31
Branch type MPKI
BRANCH_DIRECT_JUMP: 0.0123
BRANCH_INDIRECT: 0.323
BRANCH_CONDITIONAL: 12
BRANCH_DIRECT_CALL: 0.0043
BRANCH_INDIRECT_CALL: 0.2
BRANCH_RETURN: 0.00828

LLC TOTAL        ACCESS:     940090 HIT:     845754 MISS:      94336
LLC LOAD         ACCESS:     401409 HIT:     359982 MISS:      41427
LLC RFO          ACCESS:      32804 HIT:      27527 MISS:       5277
LLC PREFETCH     ACCESS:     401409 HIT:     361447 MISS:      39962
LLC WRITE        ACCESS:      85402 HIT:      84739 MISS:        663
LLC TRANSLATION  ACCESS:      19066 HIT:      12059 MISS:       7007
LLC PREFETCH REQUESTED:     401409 ISSUED:     401409 USEFUL:      12496 USELESS:       3475
LLC AVERAGE MISS LATENCY: 461.8 cycles
cpu0_DTLB TOTAL        ACCESS:  153691558 HIT:  153014796 MISS:     676762
cpu0_DTLB LOAD         ACCESS:  153691558 HIT:  153014796 MISS:     676762
cpu0_DTLB RFO          ACCESS:          0 HIT:          0 MISS:          0
cpu0_DTLB PREFETCH     ACCESS:          0 HIT:          0 MISS:          0
cpu0_DTLB WRITE        ACCESS:          0 HIT:          0 MISS:          0
cpu0_DTLB TRANSLATION  ACCESS:          0 HIT:          0 MISS:          0
cpu0_DTLB PREFETCH REQUESTED:          0 ISSUED:          0 USEFUL:          0 USELESS:          0
cpu0_DTLB AVERAGE MISS LATENCY: 11.34 cycles
cpu0_ITLB TOTAL        ACCESS:    4838657 HIT:    4780750 MISS:      57907
cpu0_ITLB LOAD         ACCESS:    4838657 HIT:    4780750 MISS:      57907
cpu0_ITLB RFO          ACCESS:          0 HIT:          0 MISS:          0
cpu0_ITLB PREFETCH     ACCESS:          0 HIT:          0 MISS:          0
cpu0_ITLB WRITE        ACCESS:          0 HIT:          0 MISS:          0
cpu0_ITLB TRANSLATION  ACCESS:          0 HIT:          0 MISS:          0
cpu0_ITLB PREFETCH REQUESTED:          0 ISSUED:          0 USEFUL:          0 USELESS:          0
cpu0_ITLB AVERAGE MISS LATENCY: 4.89 cycles
cpu0_L1D TOTAL        ACCESS:  200322456 HIT:  198634544 MISS:    1687912
cpu0_L1D LOAD         ACCESS:  117079458 HIT:  115762481 MISS:    1316977
cpu0_L1D RFO          ACCESS:          0 HIT:          0 MISS:          0
cpu0_L1D PREFETCH     ACCESS:          0 HIT:          0 MISS:          0
cpu0_L1D WRITE        ACCESS:   83218539 HIT:   82871021 MISS:     347518
cpu0_L1D TRANSLATION  ACCESS:      24459 HIT:       1042 MISS:      23417
cpu0_L1D PREFETCH REQUESTED:          0 ISSUED:          0 USEFUL:          0 USELESS:          0
cpu0_L1D AVERAGE MISS LATENCY: 24.41 cycles
cpu0_L1I TOTAL        ACCESS:    5580898 HIT:    4819359 MISS:     761539
cpu0_L1I LOAD         ACCESS:    5580898 HIT:    4819359 MISS:     761539
cpu0_L1I RFO          ACCESS:          0 HIT:          0 MISS:          0
cpu0_L1I PREFETCH     ACCESS:          0 HIT:          0 MISS:          0
cpu0_L1I WRITE        ACCESS:          0 HIT:          0 MISS:          0
cpu0_L1I TRANSLATION  ACCESS:          0 HIT:          0 MISS:          0
cpu0_L1I PREFETCH REQUESTED:          0 ISSUED:          0 USEFUL:          0 USELESS:          0
cpu0_L1I AVERAGE MISS LATENCY: 8.819 cycles
cpu0_L2C TOTAL        ACCESS:    1668046 HIT:    1212938 MISS:     455108
cpu0_L2C LOAD         ACCESS:    1317225 HIT:     915816 MISS:     401409
cpu0_L2C RFO          ACCESS:      88560 HIT:      55756 MISS:      32804
cpu0_L2C PREFETCH     ACCESS:          0 HIT:          0 MISS:          0
cpu0_L2C WRITE        ACCESS:     238919 HIT:     237090 MISS:       1829
cpu0_L2C TRANSLATION  ACCESS:      23342 HIT:       4276 MISS:      19066
cpu0_L2C PREFETCH REQUESTED:          0 ISSUED:          0 USEFUL:          0 USELESS:          0
cpu0_L2C AVERAGE MISS LATENCY: 79.59 cycles
cpu0_STLB TOTAL        ACCESS:     505151 HIT:     482362 MISS:      22789
cpu0_STLB LOAD         ACCESS:     505151 HIT:     482362 MISS:      22789
cpu0_STLB RFO          ACCESS:          0 HIT:          0 MISS:          0
cpu0_STLB PREFETCH     ACCESS:          0 HIT:          0 MISS:          0
cpu0_STLB WRITE        ACCESS:          0 HIT:          0 MISS:          0
cpu0_STLB TRANSLATION  ACCESS:          0 HIT:          0 MISS:          0
cpu0_STLB PREFETCH REQUESTED:          0 ISSUED:          0 USEFUL:          0 USELESS:          0
cpu0_STLB AVERAGE MISS LATENCY: 204.3 cycles

DRAM Statistics

Channel 0 RQ ROW_BUFFER_HIT:      19869
  ROW_BUFFER_MISS:      59989
 AVG DBUS CONGESTED CYCLE: 3.786
WQ ROW_BUFFER_HIT: Channel 0 
  ROW_BUFFER_MISS:       1910
  FULL:       3030
