WARNING: physical memory size is smaller than virtual memory size.

*** ChampSim Multicore Out-of-Order Simulator ***
Warmup Instructions: 50000000
Simulation Instructions: 600000000
Number of CPUs: 1
Page size: 4096

CPU 0 Tage branch predictor
Off-chip DRAM Size: 4 GiB Channels: 1 Width: 64-bit Data Race: 3200 MT/s
Heartbeat CPU 0 instructions: 10000000 cycles: 2500061 heartbeat IPC: 4 cumulative IPC: 4 (Simulation time: 00 hr 00 min 41 sec)
Heartbeat CPU 0 instructions: 20000000 cycles: 5000061 heartbeat IPC: 4 cumulative IPC: 4 (Simulation time: 00 hr 01 min 22 sec)
Heartbeat CPU 0 instructions: 30000000 cycles: 7500061 heartbeat IPC: 4 cumulative IPC: 4 (Simulation time: 00 hr 02 min 00 sec)
Heartbeat CPU 0 instructions: 40000000 cycles: 10000061 heartbeat IPC: 4 cumulative IPC: 4 (Simulation time: 00 hr 02 min 38 sec)
Heartbeat CPU 0 instructions: 50000000 cycles: 12500061 heartbeat IPC: 4 cumulative IPC: 4 (Simulation time: 00 hr 03 min 21 sec)
Warmup finished CPU 0 instructions: 50000000 cycles: 12500062 cumulative IPC: 4 (Simulation time: 00 hr 03 min 21 sec)
Warmup complete CPU 0 instructions: 50000000 cycles: 12500062 cumulative IPC: 4 (Simulation time: 00 hr 03 min 21 sec)
Heartbeat CPU 0 instructions: 60000004 cycles: 15504574 heartbeat IPC: 3.328 cumulative IPC: 3.328 (Simulation time: 00 hr 04 min 12 sec)
Heartbeat CPU 0 instructions: 70000003 cycles: 18375027 heartbeat IPC: 3.484 cumulative IPC: 3.404 (Simulation time: 00 hr 05 min 00 sec)
Heartbeat CPU 0 instructions: 80000002 cycles: 21385455 heartbeat IPC: 3.322 cumulative IPC: 3.376 (Simulation time: 00 hr 05 min 50 sec)
Heartbeat CPU 0 instructions: 90000000 cycles: 24106445 heartbeat IPC: 3.675 cumulative IPC: 3.446 (Simulation time: 00 hr 06 min 36 sec)
Heartbeat CPU 0 instructions: 100000003 cycles: 26861573 heartbeat IPC: 3.63 cumulative IPC: 3.482 (Simulation time: 00 hr 07 min 24 sec)
Heartbeat CPU 0 instructions: 110000001 cycles: 29760716 heartbeat IPC: 3.449 cumulative IPC: 3.476 (Simulation time: 00 hr 08 min 12 sec)
Heartbeat CPU 0 instructions: 120000001 cycles: 32476957 heartbeat IPC: 3.682 cumulative IPC: 3.504 (Simulation time: 00 hr 09 min 00 sec)
Heartbeat CPU 0 instructions: 130000003 cycles: 35373828 heartbeat IPC: 3.452 cumulative IPC: 3.497 (Simulation time: 00 hr 09 min 46 sec)
Heartbeat CPU 0 instructions: 140000002 cycles: 38209923 heartbeat IPC: 3.526 cumulative IPC: 3.501 (Simulation time: 00 hr 10 min 32 sec)
Heartbeat CPU 0 instructions: 150000001 cycles: 40979169 heartbeat IPC: 3.611 cumulative IPC: 3.511 (Simulation time: 00 hr 11 min 15 sec)
Heartbeat CPU 0 instructions: 160000000 cycles: 43896422 heartbeat IPC: 3.428 cumulative IPC: 3.504 (Simulation time: 00 hr 11 min 57 sec)
Heartbeat CPU 0 instructions: 170000001 cycles: 46819705 heartbeat IPC: 3.421 cumulative IPC: 3.497 (Simulation time: 00 hr 12 min 40 sec)
Heartbeat CPU 0 instructions: 180000000 cycles: 49612091 heartbeat IPC: 3.581 cumulative IPC: 3.503 (Simulation time: 00 hr 13 min 22 sec)
Heartbeat CPU 0 instructions: 190000002 cycles: 52318430 heartbeat IPC: 3.695 cumulative IPC: 3.516 (Simulation time: 00 hr 14 min 04 sec)
Heartbeat CPU 0 instructions: 200000002 cycles: 55141199 heartbeat IPC: 3.543 cumulative IPC: 3.518 (Simulation time: 00 hr 14 min 46 sec)
Heartbeat CPU 0 instructions: 210000000 cycles: 58032005 heartbeat IPC: 3.459 cumulative IPC: 3.514 (Simulation time: 00 hr 15 min 27 sec)
Heartbeat CPU 0 instructions: 220000001 cycles: 60781438 heartbeat IPC: 3.637 cumulative IPC: 3.521 (Simulation time: 00 hr 16 min 08 sec)
Heartbeat CPU 0 instructions: 230000002 cycles: 63668564 heartbeat IPC: 3.464 cumulative IPC: 3.518 (Simulation time: 00 hr 16 min 50 sec)
Heartbeat CPU 0 instructions: 240000004 cycles: 66619176 heartbeat IPC: 3.389 cumulative IPC: 3.511 (Simulation time: 00 hr 17 min 31 sec)
Heartbeat CPU 0 instructions: 250000003 cycles: 69509596 heartbeat IPC: 3.46 cumulative IPC: 3.508 (Simulation time: 00 hr 18 min 12 sec)
Heartbeat CPU 0 instructions: 260000001 cycles: 72292418 heartbeat IPC: 3.593 cumulative IPC: 3.512 (Simulation time: 00 hr 18 min 53 sec)
Heartbeat CPU 0 instructions: 270000002 cycles: 78010768 heartbeat IPC: 1.749 cumulative IPC: 3.358 (Simulation time: 00 hr 19 min 49 sec)
Heartbeat CPU 0 instructions: 280000000 cycles: 86354408 heartbeat IPC: 1.199 cumulative IPC: 3.114 (Simulation time: 00 hr 21 min 00 sec)
Heartbeat CPU 0 instructions: 290000000 cycles: 93154678 heartbeat IPC: 1.471 cumulative IPC: 2.976 (Simulation time: 00 hr 22 min 05 sec)
Heartbeat CPU 0 instructions: 300000003 cycles: 98139904 heartbeat IPC: 2.006 cumulative IPC: 2.919 (Simulation time: 00 hr 23 min 02 sec)
Heartbeat CPU 0 instructions: 310000001 cycles: 105395338 heartbeat IPC: 1.378 cumulative IPC: 2.799 (Simulation time: 00 hr 24 min 11 sec)
Heartbeat CPU 0 instructions: 320000004 cycles: 109030802 heartbeat IPC: 2.751 cumulative IPC: 2.797 (Simulation time: 00 hr 24 min 59 sec)
Heartbeat CPU 0 instructions: 330000000 cycles: 112130400 heartbeat IPC: 3.226 cumulative IPC: 2.81 (Simulation time: 00 hr 25 min 43 sec)
Heartbeat CPU 0 instructions: 340000001 cycles: 114935915 heartbeat IPC: 3.564 cumulative IPC: 2.831 (Simulation time: 00 hr 26 min 24 sec)
Heartbeat CPU 0 instructions: 350000000 cycles: 117896140 heartbeat IPC: 3.378 cumulative IPC: 2.846 (Simulation time: 00 hr 27 min 07 sec)
Heartbeat CPU 0 instructions: 360000004 cycles: 120677480 heartbeat IPC: 3.595 cumulative IPC: 2.866 (Simulation time: 00 hr 27 min 48 sec)
Heartbeat CPU 0 instructions: 370000001 cycles: 123475995 heartbeat IPC: 3.573 cumulative IPC: 2.884 (Simulation time: 00 hr 28 min 29 sec)
Heartbeat CPU 0 instructions: 380000004 cycles: 126302897 heartbeat IPC: 3.537 cumulative IPC: 2.9 (Simulation time: 00 hr 29 min 11 sec)
Heartbeat CPU 0 instructions: 390000002 cycles: 129151451 heartbeat IPC: 3.511 cumulative IPC: 2.915 (Simulation time: 00 hr 29 min 53 sec)
Heartbeat CPU 0 instructions: 400000000 cycles: 132057259 heartbeat IPC: 3.441 cumulative IPC: 2.927 (Simulation time: 00 hr 30 min 35 sec)
Heartbeat CPU 0 instructions: 410000000 cycles: 136282576 heartbeat IPC: 2.367 cumulative IPC: 2.908 (Simulation time: 00 hr 31 min 26 sec)
Heartbeat CPU 0 instructions: 420000003 cycles: 141476585 heartbeat IPC: 1.925 cumulative IPC: 2.869 (Simulation time: 00 hr 32 min 23 sec)
Heartbeat CPU 0 instructions: 430000000 cycles: 145844031 heartbeat IPC: 2.29 cumulative IPC: 2.85 (Simulation time: 00 hr 33 min 17 sec)
Heartbeat CPU 0 instructions: 440000004 cycles: 150049243 heartbeat IPC: 2.378 cumulative IPC: 2.835 (Simulation time: 00 hr 34 min 08 sec)
Heartbeat CPU 0 instructions: 450000001 cycles: 154268206 heartbeat IPC: 2.37 cumulative IPC: 2.822 (Simulation time: 00 hr 35 min 00 sec)
Heartbeat CPU 0 instructions: 460000002 cycles: 159598133 heartbeat IPC: 1.876 cumulative IPC: 2.787 (Simulation time: 00 hr 35 min 57 sec)
Heartbeat CPU 0 instructions: 470000003 cycles: 164161204 heartbeat IPC: 2.192 cumulative IPC: 2.769 (Simulation time: 00 hr 36 min 51 sec)
Heartbeat CPU 0 instructions: 480000000 cycles: 167130619 heartbeat IPC: 3.368 cumulative IPC: 2.781 (Simulation time: 00 hr 37 min 34 sec)
Heartbeat CPU 0 instructions: 490000001 cycles: 170080562 heartbeat IPC: 3.39 cumulative IPC: 2.792 (Simulation time: 00 hr 38 min 17 sec)
Heartbeat CPU 0 instructions: 500000002 cycles: 172972515 heartbeat IPC: 3.458 cumulative IPC: 2.804 (Simulation time: 00 hr 38 min 59 sec)
Heartbeat CPU 0 instructions: 510000000 cycles: 175863803 heartbeat IPC: 3.459 cumulative IPC: 2.816 (Simulation time: 00 hr 39 min 42 sec)
Heartbeat CPU 0 instructions: 520000000 cycles: 178762934 heartbeat IPC: 3.449 cumulative IPC: 2.827 (Simulation time: 00 hr 40 min 23 sec)
Heartbeat CPU 0 instructions: 530000001 cycles: 183646273 heartbeat IPC: 2.048 cumulative IPC: 2.805 (Simulation time: 00 hr 41 min 17 sec)
Heartbeat CPU 0 instructions: 540000000 cycles: 188421384 heartbeat IPC: 2.094 cumulative IPC: 2.785 (Simulation time: 00 hr 42 min 12 sec)
Heartbeat CPU 0 instructions: 550000004 cycles: 193813438 heartbeat IPC: 1.855 cumulative IPC: 2.758 (Simulation time: 00 hr 43 min 09 sec)
Heartbeat CPU 0 instructions: 560000004 cycles: 196976244 heartbeat IPC: 3.162 cumulative IPC: 2.765 (Simulation time: 00 hr 43 min 53 sec)
Heartbeat CPU 0 instructions: 570000002 cycles: 199755980 heartbeat IPC: 3.597 cumulative IPC: 2.777 (Simulation time: 00 hr 44 min 35 sec)
Heartbeat CPU 0 instructions: 580000000 cycles: 202599423 heartbeat IPC: 3.517 cumulative IPC: 2.788 (Simulation time: 00 hr 45 min 15 sec)
Heartbeat CPU 0 instructions: 590000001 cycles: 205451188 heartbeat IPC: 3.507 cumulative IPC: 2.799 (Simulation time: 00 hr 45 min 56 sec)
Heartbeat CPU 0 instructions: 600000003 cycles: 208104078 heartbeat IPC: 3.769 cumulative IPC: 2.812 (Simulation time: 00 hr 46 min 37 sec)
Heartbeat CPU 0 instructions: 610000001 cycles: 210919131 heartbeat IPC: 3.552 cumulative IPC: 2.822 (Simulation time: 00 hr 47 min 17 sec)
Heartbeat CPU 0 instructions: 620000004 cycles: 213832313 heartbeat IPC: 3.433 cumulative IPC: 2.831 (Simulation time: 00 hr 47 min 58 sec)
Heartbeat CPU 0 instructions: 630000002 cycles: 216613658 heartbeat IPC: 3.595 cumulative IPC: 2.842 (Simulation time: 00 hr 48 min 37 sec)
Heartbeat CPU 0 instructions: 640000004 cycles: 219627069 heartbeat IPC: 3.318 cumulative IPC: 2.848 (Simulation time: 00 hr 49 min 18 sec)
Heartbeat CPU 0 instructions: 650000001 cycles: 222320880 heartbeat IPC: 3.712 cumulative IPC: 2.86 (Simulation time: 00 hr 49 min 56 sec)
Simulation finished CPU 0 instructions: 600000001 cycles: 209820819 cumulative IPC: 2.86 (Simulation time: 00 hr 49 min 56 sec)
Simulation complete CPU 0 instructions: 600000001 cycles: 209820819 cumulative IPC: 2.86 (Simulation time: 00 hr 49 min 56 sec)

ChampSim completed all CPUs

=== Simulation ===
CPU 0 runs traces/400.perlbench-50B.champsimtrace.xz
Region of Interest Statistics

CPU 0 cumulative IPC: 2.86 instructions: 600000001 cycles: 209820819
CPU 0 Branch Prediction Accuracy: 99.01% MPKI: 2.04 Average ROB Occupancy at Mispredict: 93.32
Branch type MPKI
BRANCH_DIRECT_JUMP: 0.0176
BRANCH_INDIRECT: 0.38
BRANCH_CONDITIONAL: 1.19
BRANCH_DIRECT_CALL: 0.0067
BRANCH_INDIRECT_CALL: 0.431
BRANCH_RETURN: 0.0161

LLC TOTAL        ACCESS:     836009 HIT:     708260 MISS:     127749
LLC LOAD         ACCESS:     576043 HIT:     477824 MISS:      98219
LLC RFO          ACCESS:      47056 HIT:      37515 MISS:       9541
LLC PREFETCH     ACCESS:      64203 HIT:      53326 MISS:      10877
LLC WRITE        ACCESS:     126693 HIT:     126688 MISS:          5
LLC TRANSLATION  ACCESS:      22014 HIT:      12907 MISS:       9107
LLC PREFETCH REQUESTED:      64203 ISSUED:      64203 USEFUL:       6558 USELESS:        503
LLC AVERAGE MISS LATENCY: 526.1 cycles
cpu0_DTLB TOTAL        ACCESS:  133221678 HIT:  131867765 MISS:    1353913
cpu0_DTLB LOAD         ACCESS:  133221678 HIT:  131867765 MISS:    1353913
cpu0_DTLB RFO          ACCESS:          0 HIT:          0 MISS:          0
cpu0_DTLB PREFETCH     ACCESS:          0 HIT:          0 MISS:          0
cpu0_DTLB WRITE        ACCESS:          0 HIT:          0 MISS:          0
cpu0_DTLB TRANSLATION  ACCESS:          0 HIT:          0 MISS:          0
cpu0_DTLB PREFETCH REQUESTED:          0 ISSUED:          0 USEFUL:          0 USELESS:          0
cpu0_DTLB AVERAGE MISS LATENCY: 9.475 cycles
cpu0_ITLB TOTAL        ACCESS:    8985447 HIT:    8776005 MISS:     209442
cpu0_ITLB LOAD         ACCESS:    8985447 HIT:    8776005 MISS:     209442
cpu0_ITLB RFO          ACCESS:          0 HIT:          0 MISS:          0
cpu0_ITLB PREFETCH     ACCESS:          0 HIT:          0 MISS:          0
cpu0_ITLB WRITE        ACCESS:          0 HIT:          0 MISS:          0
cpu0_ITLB TRANSLATION  ACCESS:          0 HIT:          0 MISS:          0
cpu0_ITLB PREFETCH REQUESTED:          0 ISSUED:          0 USEFUL:          0 USELESS:          0
cpu0_ITLB AVERAGE MISS LATENCY: 2.328 cycles
cpu0_L1D TOTAL        ACCESS:  178287169 HIT:  174548733 MISS:    3738436
cpu0_L1D LOAD         ACCESS:   92767684 HIT:   89696754 MISS:    3070930
cpu0_L1D RFO          ACCESS:          0 HIT:          0 MISS:          0
cpu0_L1D PREFETCH     ACCESS:          0 HIT:          0 MISS:          0
cpu0_L1D WRITE        ACCESS:   85490955 HIT:   84850555 MISS:     640400
cpu0_L1D TRANSLATION  ACCESS:      28530 HIT:       1424 MISS:      27106
cpu0_L1D PREFETCH REQUESTED:          0 ISSUED:          0 USEFUL:          0 USELESS:          0
cpu0_L1D AVERAGE MISS LATENCY: 22.23 cycles
cpu0_L1I TOTAL        ACCESS:   10505839 HIT:    8607207 MISS:    1898632
cpu0_L1I LOAD         ACCESS:   10505839 HIT:    8607207 MISS:    1898632
cpu0_L1I RFO          ACCESS:          0 HIT:          0 MISS:          0
cpu0_L1I PREFETCH     ACCESS:          0 HIT:          0 MISS:          0
cpu0_L1I WRITE        ACCESS:          0 HIT:          0 MISS:          0
cpu0_L1I TRANSLATION  ACCESS:          0 HIT:          0 MISS:          0
cpu0_L1I PREFETCH REQUESTED:          0 ISSUED:          0 USEFUL:          0 USELESS:          0
cpu0_L1I AVERAGE MISS LATENCY: 8.496 cycles
cpu0_L2C TOTAL        ACCESS:    3840718 HIT:    3192457 MISS:     648261
cpu0_L2C LOAD         ACCESS:    3103957 HIT:    2527914 MISS:     576043
cpu0_L2C RFO          ACCESS:     194816 HIT:     147760 MISS:      47056
cpu0_L2C PREFETCH     ACCESS:          0 HIT:          0 MISS:          0
cpu0_L2C WRITE        ACCESS:     514911 HIT:     511763 MISS:       3148
cpu0_L2C TRANSLATION  ACCESS:      27034 HIT:       5020 MISS:      22014
cpu0_L2C PREFETCH REQUESTED:          0 ISSUED:          0 USEFUL:          0 USELESS:          0
cpu0_L2C AVERAGE MISS LATENCY: 114.5 cycles
cpu0_STLB TOTAL        ACCESS:    1009708 HIT:     983017 MISS:      26691
cpu0_STLB LOAD         ACCESS:    1009708 HIT:     983017 MISS:      26691
cpu0_STLB RFO          ACCESS:          0 HIT:          0 MISS:          0
cpu0_STLB PREFETCH     ACCESS:          0 HIT:          0 MISS:          0
cpu0_STLB WRITE        ACCESS:          0 HIT:          0 MISS:          0
cpu0_STLB TRANSLATION  ACCESS:          0 HIT:          0 MISS:          0
cpu0_STLB PREFETCH REQUESTED:          0 ISSUED:          0 USEFUL:          0 USELESS:          0
cpu0_STLB AVERAGE MISS LATENCY: 265.4 cycles

DRAM Statistics

Channel 0 RQ ROW_BUFFER_HIT:      38193
  ROW_BUFFER_MISS:      87362
 AVG DBUS CONGESTED CYCLE: 3.774
WQ ROW_BUFFER_HIT: Channel 0 
  ROW_BUFFER_MISS:       1107
  FULL:       1337
