WARNING: physical memory size is smaller than virtual memory size.

*** ChampSim Multicore Out-of-Order Simulator ***
Warmup Instructions: 50000000
Simulation Instructions: 600000000
Number of CPUs: 1
Page size: 4096

Off-chip DRAM Size: 4 GiB Channels: 1 Width: 64-bit Data Race: 3200 MT/s
Heartbeat CPU 0 instructions: 10000000 cycles: 2500061 heartbeat IPC: 4 cumulative IPC: 4 (Simulation time: 00 hr 00 min 34 sec)
Heartbeat CPU 0 instructions: 20000000 cycles: 5000061 heartbeat IPC: 4 cumulative IPC: 4 (Simulation time: 00 hr 01 min 10 sec)
Heartbeat CPU 0 instructions: 30000000 cycles: 7500061 heartbeat IPC: 4 cumulative IPC: 4 (Simulation time: 00 hr 01 min 44 sec)
Heartbeat CPU 0 instructions: 40000000 cycles: 10000061 heartbeat IPC: 4 cumulative IPC: 4 (Simulation time: 00 hr 02 min 16 sec)
Heartbeat CPU 0 instructions: 50000000 cycles: 12500061 heartbeat IPC: 4 cumulative IPC: 4 (Simulation time: 00 hr 02 min 53 sec)
Warmup finished CPU 0 instructions: 50000000 cycles: 12500062 cumulative IPC: 4 (Simulation time: 00 hr 02 min 53 sec)
Warmup complete CPU 0 instructions: 50000000 cycles: 12500062 cumulative IPC: 4 (Simulation time: 00 hr 02 min 53 sec)
Heartbeat CPU 0 instructions: 60000002 cycles: 16435783 heartbeat IPC: 2.541 cumulative IPC: 2.541 (Simulation time: 00 hr 03 min 40 sec)
Heartbeat CPU 0 instructions: 70000003 cycles: 20749204 heartbeat IPC: 2.318 cumulative IPC: 2.424 (Simulation time: 00 hr 04 min 28 sec)
Heartbeat CPU 0 instructions: 80000003 cycles: 25212938 heartbeat IPC: 2.24 cumulative IPC: 2.36 (Simulation time: 00 hr 05 min 15 sec)
Heartbeat CPU 0 instructions: 90000000 cycles: 28902625 heartbeat IPC: 2.71 cumulative IPC: 2.439 (Simulation time: 00 hr 05 min 56 sec)
Heartbeat CPU 0 instructions: 100000003 cycles: 32797283 heartbeat IPC: 2.568 cumulative IPC: 2.463 (Simulation time: 00 hr 06 min 42 sec)
Heartbeat CPU 0 instructions: 110000002 cycles: 36888882 heartbeat IPC: 2.444 cumulative IPC: 2.46 (Simulation time: 00 hr 07 min 27 sec)
Heartbeat CPU 0 instructions: 120000001 cycles: 40602045 heartbeat IPC: 2.693 cumulative IPC: 2.491 (Simulation time: 00 hr 08 min 11 sec)
Heartbeat CPU 0 instructions: 130000003 cycles: 44366187 heartbeat IPC: 2.657 cumulative IPC: 2.511 (Simulation time: 00 hr 08 min 53 sec)
Heartbeat CPU 0 instructions: 140000002 cycles: 48491614 heartbeat IPC: 2.424 cumulative IPC: 2.501 (Simulation time: 00 hr 09 min 37 sec)
Heartbeat CPU 0 instructions: 150000001 cycles: 52535644 heartbeat IPC: 2.473 cumulative IPC: 2.498 (Simulation time: 00 hr 10 min 20 sec)
Heartbeat CPU 0 instructions: 160000000 cycles: 56184366 heartbeat IPC: 2.741 cumulative IPC: 2.518 (Simulation time: 00 hr 11 min 01 sec)
Heartbeat CPU 0 instructions: 170000001 cycles: 60350038 heartbeat IPC: 2.401 cumulative IPC: 2.508 (Simulation time: 00 hr 11 min 45 sec)
Heartbeat CPU 0 instructions: 180000001 cycles: 63805525 heartbeat IPC: 2.894 cumulative IPC: 2.534 (Simulation time: 00 hr 12 min 26 sec)
Heartbeat CPU 0 instructions: 190000002 cycles: 67382191 heartbeat IPC: 2.796 cumulative IPC: 2.551 (Simulation time: 00 hr 13 min 08 sec)
Heartbeat CPU 0 instructions: 200000002 cycles: 71153161 heartbeat IPC: 2.652 cumulative IPC: 2.557 (Simulation time: 00 hr 13 min 50 sec)
Heartbeat CPU 0 instructions: 210000000 cycles: 74788089 heartbeat IPC: 2.751 cumulative IPC: 2.569 (Simulation time: 00 hr 14 min 31 sec)
Heartbeat CPU 0 instructions: 220000001 cycles: 78655984 heartbeat IPC: 2.585 cumulative IPC: 2.57 (Simulation time: 00 hr 15 min 14 sec)
Heartbeat CPU 0 instructions: 230000002 cycles: 82491062 heartbeat IPC: 2.608 cumulative IPC: 2.572 (Simulation time: 00 hr 15 min 57 sec)
Heartbeat CPU 0 instructions: 240000001 cycles: 86693138 heartbeat IPC: 2.38 cumulative IPC: 2.561 (Simulation time: 00 hr 16 min 42 sec)
Heartbeat CPU 0 instructions: 250000003 cycles: 91251932 heartbeat IPC: 2.194 cumulative IPC: 2.54 (Simulation time: 00 hr 17 min 30 sec)
Heartbeat CPU 0 instructions: 260000000 cycles: 95043028 heartbeat IPC: 2.638 cumulative IPC: 2.544 (Simulation time: 00 hr 18 min 15 sec)
Heartbeat CPU 0 instructions: 270000003 cycles: 101666040 heartbeat IPC: 1.51 cumulative IPC: 2.467 (Simulation time: 00 hr 19 min 17 sec)
Heartbeat CPU 0 instructions: 280000000 cycles: 111310609 heartbeat IPC: 1.037 cumulative IPC: 2.328 (Simulation time: 00 hr 20 min 38 sec)
Heartbeat CPU 0 instructions: 290000000 cycles: 119902773 heartbeat IPC: 1.164 cumulative IPC: 2.235 (Simulation time: 00 hr 21 min 54 sec)
Heartbeat CPU 0 instructions: 300000003 cycles: 126979869 heartbeat IPC: 1.413 cumulative IPC: 2.184 (Simulation time: 00 hr 23 min 02 sec)
Heartbeat CPU 0 instructions: 310000004 cycles: 136767411 heartbeat IPC: 1.022 cumulative IPC: 2.092 (Simulation time: 00 hr 24 min 27 sec)
Heartbeat CPU 0 instructions: 320000004 cycles: 141631441 heartbeat IPC: 2.056 cumulative IPC: 2.091 (Simulation time: 00 hr 25 min 21 sec)
Heartbeat CPU 0 instructions: 330000000 cycles: 145624989 heartbeat IPC: 2.504 cumulative IPC: 2.103 (Simulation time: 00 hr 26 min 08 sec)
Heartbeat CPU 0 instructions: 340000001 cycles: 149504362 heartbeat IPC: 2.578 cumulative IPC: 2.117 (Simulation time: 00 hr 26 min 54 sec)
Heartbeat CPU 0 instructions: 350000004 cycles: 153507124 heartbeat IPC: 2.498 cumulative IPC: 2.128 (Simulation time: 00 hr 27 min 41 sec)
Heartbeat CPU 0 instructions: 360000003 cycles: 157260828 heartbeat IPC: 2.664 cumulative IPC: 2.141 (Simulation time: 00 hr 28 min 26 sec)
Heartbeat CPU 0 instructions: 370000001 cycles: 160997654 heartbeat IPC: 2.676 cumulative IPC: 2.155 (Simulation time: 00 hr 29 min 11 sec)
Heartbeat CPU 0 instructions: 380000004 cycles: 164594931 heartbeat IPC: 2.78 cumulative IPC: 2.17 (Simulation time: 00 hr 29 min 56 sec)
Heartbeat CPU 0 instructions: 390000002 cycles: 168237689 heartbeat IPC: 2.745 cumulative IPC: 2.183 (Simulation time: 00 hr 30 min 41 sec)
Heartbeat CPU 0 instructions: 400000000 cycles: 172165971 heartbeat IPC: 2.546 cumulative IPC: 2.192 (Simulation time: 00 hr 31 min 27 sec)
Heartbeat CPU 0 instructions: 410000000 cycles: 177760550 heartbeat IPC: 1.787 cumulative IPC: 2.178 (Simulation time: 00 hr 32 min 24 sec)
Heartbeat CPU 0 instructions: 420000003 cycles: 185034390 heartbeat IPC: 1.375 cumulative IPC: 2.145 (Simulation time: 00 hr 33 min 31 sec)
Heartbeat CPU 0 instructions: 430000000 cycles: 191490822 heartbeat IPC: 1.549 cumulative IPC: 2.123 (Simulation time: 00 hr 34 min 36 sec)
Heartbeat CPU 0 instructions: 440000004 cycles: 197438811 heartbeat IPC: 1.681 cumulative IPC: 2.109 (Simulation time: 00 hr 35 min 37 sec)
Heartbeat CPU 0 instructions: 450000001 cycles: 203638900 heartbeat IPC: 1.613 cumulative IPC: 2.093 (Simulation time: 00 hr 36 min 40 sec)
Heartbeat CPU 0 instructions: 460000002 cycles: 211413291 heartbeat IPC: 1.286 cumulative IPC: 2.061 (Simulation time: 00 hr 37 min 51 sec)
Heartbeat CPU 0 instructions: 470000003 cycles: 218180933 heartbeat IPC: 1.478 cumulative IPC: 2.042 (Simulation time: 00 hr 38 min 57 sec)
Heartbeat CPU 0 instructions: 480000003 cycles: 222033597 heartbeat IPC: 2.596 cumulative IPC: 2.052 (Simulation time: 00 hr 39 min 43 sec)
Heartbeat CPU 0 instructions: 490000001 cycles: 226055263 heartbeat IPC: 2.487 cumulative IPC: 2.06 (Simulation time: 00 hr 40 min 29 sec)
Heartbeat CPU 0 instructions: 500000002 cycles: 229926207 heartbeat IPC: 2.583 cumulative IPC: 2.07 (Simulation time: 00 hr 41 min 15 sec)
Heartbeat CPU 0 instructions: 510000000 cycles: 233632298 heartbeat IPC: 2.698 cumulative IPC: 2.08 (Simulation time: 00 hr 42 min 01 sec)
Heartbeat CPU 0 instructions: 520000000 cycles: 237489873 heartbeat IPC: 2.592 cumulative IPC: 2.089 (Simulation time: 00 hr 42 min 47 sec)
Heartbeat CPU 0 instructions: 530000001 cycles: 244851165 heartbeat IPC: 1.358 cumulative IPC: 2.066 (Simulation time: 00 hr 43 min 54 sec)
Heartbeat CPU 0 instructions: 540000000 cycles: 252203421 heartbeat IPC: 1.36 cumulative IPC: 2.044 (Simulation time: 00 hr 45 min 03 sec)
Heartbeat CPU 0 instructions: 550000004 cycles: 260250717 heartbeat IPC: 1.243 cumulative IPC: 2.018 (Simulation time: 00 hr 46 min 15 sec)
Heartbeat CPU 0 instructions: 560000004 cycles: 264116804 heartbeat IPC: 2.587 cumulative IPC: 2.027 (Simulation time: 00 hr 47 min 00 sec)
Heartbeat CPU 0 instructions: 570000001 cycles: 267208707 heartbeat IPC: 3.234 cumulative IPC: 2.042 (Simulation time: 00 hr 47 min 42 sec)
Heartbeat CPU 0 instructions: 580000003 cycles: 270671465 heartbeat IPC: 2.888 cumulative IPC: 2.053 (Simulation time: 00 hr 48 min 26 sec)
Heartbeat CPU 0 instructions: 590000002 cycles: 274230864 heartbeat IPC: 2.809 cumulative IPC: 2.063 (Simulation time: 00 hr 49 min 10 sec)
Heartbeat CPU 0 instructions: 600000003 cycles: 277257021 heartbeat IPC: 3.305 cumulative IPC: 2.077 (Simulation time: 00 hr 49 min 55 sec)
Heartbeat CPU 0 instructions: 610000001 cycles: 280716750 heartbeat IPC: 2.89 cumulative IPC: 2.088 (Simulation time: 00 hr 50 min 38 sec)
Heartbeat CPU 0 instructions: 620000000 cycles: 284694345 heartbeat IPC: 2.514 cumulative IPC: 2.094 (Simulation time: 00 hr 51 min 21 sec)
Heartbeat CPU 0 instructions: 630000002 cycles: 288028304 heartbeat IPC: 2.999 cumulative IPC: 2.105 (Simulation time: 00 hr 52 min 03 sec)
Heartbeat CPU 0 instructions: 640000004 cycles: 291998833 heartbeat IPC: 2.519 cumulative IPC: 2.111 (Simulation time: 00 hr 52 min 49 sec)
Heartbeat CPU 0 instructions: 650000001 cycles: 295803130 heartbeat IPC: 2.629 cumulative IPC: 2.118 (Simulation time: 00 hr 53 min 34 sec)
Simulation finished CPU 0 instructions: 600000001 cycles: 283303069 cumulative IPC: 2.118 (Simulation time: 00 hr 53 min 34 sec)
Simulation complete CPU 0 instructions: 600000001 cycles: 283303069 cumulative IPC: 2.118 (Simulation time: 00 hr 53 min 34 sec)

ChampSim completed all CPUs

=== Simulation ===
CPU 0 runs traces/400.perlbench-50B.champsimtrace.xz
Region of Interest Statistics

CPU 0 cumulative IPC: 2.118 instructions: 600000001 cycles: 283303069
CPU 0 Branch Prediction Accuracy: 96.2% MPKI: 7.839 Average ROB Occupancy at Mispredict: 43.03
Branch type MPKI
BRANCH_DIRECT_JUMP: 0.0176
BRANCH_INDIRECT: 0.38
BRANCH_CONDITIONAL: 6.99
BRANCH_DIRECT_CALL: 0.0067
BRANCH_INDIRECT_CALL: 0.431
BRANCH_RETURN: 0.0161

LLC TOTAL        ACCESS:    1353797 HIT:    1135660 MISS:     218137
LLC LOAD         ACCESS:     578495 HIT:     482281 MISS:      96214
LLC RFO          ACCESS:      47394 HIT:      38723 MISS:       8671
LLC PREFETCH     ACCESS:     578495 HIT:     474813 MISS:     103682
LLC WRITE        ACCESS:     127318 HIT:     127306 MISS:         12
LLC TRANSLATION  ACCESS:      22095 HIT:      12537 MISS:       9558
LLC PREFETCH REQUESTED:     578495 ISSUED:     578495 USEFUL:      34867 USELESS:      21412
LLC AVERAGE MISS LATENCY: 455.1 cycles
cpu0_DTLB TOTAL        ACCESS:  146529420 HIT:  145224597 MISS:    1304823
cpu0_DTLB LOAD         ACCESS:  146529420 HIT:  145224597 MISS:    1304823
cpu0_DTLB RFO          ACCESS:          0 HIT:          0 MISS:          0
cpu0_DTLB PREFETCH     ACCESS:          0 HIT:          0 MISS:          0
cpu0_DTLB WRITE        ACCESS:          0 HIT:          0 MISS:          0
cpu0_DTLB TRANSLATION  ACCESS:          0 HIT:          0 MISS:          0
cpu0_DTLB PREFETCH REQUESTED:          0 ISSUED:          0 USEFUL:          0 USELESS:          0
cpu0_DTLB AVERAGE MISS LATENCY: 10.17 cycles
cpu0_ITLB TOTAL        ACCESS:    8984425 HIT:    8799932 MISS:     184493
cpu0_ITLB LOAD         ACCESS:    8984425 HIT:    8799932 MISS:     184493
cpu0_ITLB RFO          ACCESS:          0 HIT:          0 MISS:          0
cpu0_ITLB PREFETCH     ACCESS:          0 HIT:          0 MISS:          0
cpu0_ITLB WRITE        ACCESS:          0 HIT:          0 MISS:          0
cpu0_ITLB TRANSLATION  ACCESS:          0 HIT:          0 MISS:          0
cpu0_ITLB PREFETCH REQUESTED:          0 ISSUED:          0 USEFUL:          0 USELESS:          0
cpu0_ITLB AVERAGE MISS LATENCY: 2.983 cycles
cpu0_L1D TOTAL        ACCESS:  193330160 HIT:  189701625 MISS:    3628535
cpu0_L1D LOAD         ACCESS:  107483743 HIT:  104490209 MISS:    2993534
cpu0_L1D RFO          ACCESS:          0 HIT:          0 MISS:          0
cpu0_L1D PREFETCH     ACCESS:          0 HIT:          0 MISS:          0
cpu0_L1D WRITE        ACCESS:   85817894 HIT:   85209988 MISS:     607906
cpu0_L1D TRANSLATION  ACCESS:      28523 HIT:       1428 MISS:      27095
cpu0_L1D PREFETCH REQUESTED:          0 ISSUED:          0 USEFUL:          0 USELESS:          0
cpu0_L1D AVERAGE MISS LATENCY: 22.65 cycles
cpu0_L1I TOTAL        ACCESS:   10419358 HIT:    8657684 MISS:    1761674
cpu0_L1I LOAD         ACCESS:   10419358 HIT:    8657684 MISS:    1761674
cpu0_L1I RFO          ACCESS:          0 HIT:          0 MISS:          0
cpu0_L1I PREFETCH     ACCESS:          0 HIT:          0 MISS:          0
cpu0_L1I WRITE        ACCESS:          0 HIT:          0 MISS:          0
cpu0_L1I TRANSLATION  ACCESS:          0 HIT:          0 MISS:          0
cpu0_L1I PREFETCH REQUESTED:          0 ISSUED:          0 USEFUL:          0 USELESS:          0
cpu0_L1I AVERAGE MISS LATENCY: 9.081 cycles
cpu0_L2C TOTAL        ACCESS:    3834861 HIT:    3183799 MISS:     651062
cpu0_L2C LOAD         ACCESS:    3105033 HIT:    2526538 MISS:     578495
cpu0_L2C RFO          ACCESS:     191511 HIT:     144116 MISS:      47395
cpu0_L2C PREFETCH     ACCESS:          0 HIT:          0 MISS:          0
cpu0_L2C WRITE        ACCESS:     511285 HIT:     508208 MISS:       3077
cpu0_L2C TRANSLATION  ACCESS:      27032 HIT:       4937 MISS:      22095
cpu0_L2C PREFETCH REQUESTED:          0 ISSUED:          0 USEFUL:          0 USELESS:          0
cpu0_L2C AVERAGE MISS LATENCY: 108.2 cycles
cpu0_STLB TOTAL        ACCESS:    1008284 HIT:     981591 MISS:      26693
cpu0_STLB LOAD         ACCESS:    1008284 HIT:     981591 MISS:      26693
cpu0_STLB RFO          ACCESS:          0 HIT:          0 MISS:          0
cpu0_STLB PREFETCH     ACCESS:          0 HIT:          0 MISS:          0
cpu0_STLB WRITE        ACCESS:          0 HIT:          0 MISS:          0
cpu0_STLB TRANSLATION  ACCESS:          0 HIT:          0 MISS:          0
cpu0_STLB PREFETCH REQUESTED:          0 ISSUED:          0 USEFUL:          0 USELESS:          0
cpu0_STLB AVERAGE MISS LATENCY: 271 cycles

DRAM Statistics

Channel 0 RQ ROW_BUFFER_HIT:      54128
  ROW_BUFFER_MISS:     129879
 AVG DBUS CONGESTED CYCLE: 3.802
WQ ROW_BUFFER_HIT: Channel 0 
  ROW_BUFFER_MISS:       1136
  FULL:       1257
