WARNING: physical memory size is smaller than virtual memory size.

*** ChampSim Multicore Out-of-Order Simulator ***
Warmup Instructions: 50000000
Simulation Instructions: 600000000
Number of CPUs: 1
Page size: 4096

Off-chip DRAM Size: 4 GiB Channels: 1 Width: 64-bit Data Race: 3200 MT/s
Heartbeat CPU 0 instructions: 10000001 cycles: 2500319 heartbeat IPC: 3.999 cumulative IPC: 3.999 (Simulation time: 00 hr 00 min 51 sec)
Heartbeat CPU 0 instructions: 20000002 cycles: 5037117 heartbeat IPC: 3.942 cumulative IPC: 3.971 (Simulation time: 00 hr 02 min 32 sec)
Heartbeat CPU 0 instructions: 30000002 cycles: 7537117 heartbeat IPC: 4 cumulative IPC: 3.98 (Simulation time: 00 hr 05 min 10 sec)
Heartbeat CPU 0 instructions: 40000002 cycles: 10037117 heartbeat IPC: 4 cumulative IPC: 3.985 (Simulation time: 00 hr 08 min 23 sec)
Heartbeat CPU 0 instructions: 50000002 cycles: 12537117 heartbeat IPC: 4 cumulative IPC: 3.988 (Simulation time: 00 hr 11 min 42 sec)
Warmup finished CPU 0 instructions: 50000002 cycles: 12537118 cumulative IPC: 3.988 (Simulation time: 00 hr 11 min 42 sec)
Warmup complete CPU 0 instructions: 50000002 cycles: 12537118 cumulative IPC: 3.988 (Simulation time: 00 hr 11 min 42 sec)
Heartbeat CPU 0 instructions: 60000000 cycles: 17717292 heartbeat IPC: 1.93 cumulative IPC: 1.93 (Simulation time: 00 hr 16 min 51 sec)
Heartbeat CPU 0 instructions: 70000002 cycles: 22610690 heartbeat IPC: 2.044 cumulative IPC: 1.985 (Simulation time: 00 hr 21 min 54 sec)
Heartbeat CPU 0 instructions: 80000001 cycles: 27978805 heartbeat IPC: 1.863 cumulative IPC: 1.943 (Simulation time: 00 hr 27 min 13 sec)
Heartbeat CPU 0 instructions: 90000001 cycles: 32848107 heartbeat IPC: 2.054 cumulative IPC: 1.969 (Simulation time: 00 hr 32 min 16 sec)
Heartbeat CPU 0 instructions: 100000000 cycles: 37949048 heartbeat IPC: 1.96 cumulative IPC: 1.968 (Simulation time: 00 hr 37 min 27 sec)
Heartbeat CPU 0 instructions: 110000000 cycles: 42812212 heartbeat IPC: 2.056 cumulative IPC: 1.982 (Simulation time: 00 hr 42 min 29 sec)
Heartbeat CPU 0 instructions: 120000001 cycles: 47996962 heartbeat IPC: 1.929 cumulative IPC: 1.974 (Simulation time: 00 hr 47 min 42 sec)
Heartbeat CPU 0 instructions: 130000001 cycles: 53130409 heartbeat IPC: 1.948 cumulative IPC: 1.971 (Simulation time: 00 hr 52 min 57 sec)
Heartbeat CPU 0 instructions: 140000001 cycles: 58406816 heartbeat IPC: 1.895 cumulative IPC: 1.962 (Simulation time: 00 hr 58 min 12 sec)
Heartbeat CPU 0 instructions: 150000001 cycles: 63696373 heartbeat IPC: 1.891 cumulative IPC: 1.955 (Simulation time: 01 hr 03 min 27 sec)
Heartbeat CPU 0 instructions: 160000004 cycles: 68863511 heartbeat IPC: 1.935 cumulative IPC: 1.953 (Simulation time: 01 hr 08 min 38 sec)
Heartbeat CPU 0 instructions: 170000000 cycles: 77581514 heartbeat IPC: 1.147 cumulative IPC: 1.845 (Simulation time: 01 hr 16 min 15 sec)
Heartbeat CPU 0 instructions: 180000004 cycles: 85565968 heartbeat IPC: 1.252 cumulative IPC: 1.78 (Simulation time: 01 hr 23 min 37 sec)
Heartbeat CPU 0 instructions: 190000001 cycles: 93611916 heartbeat IPC: 1.243 cumulative IPC: 1.727 (Simulation time: 01 hr 30 min 56 sec)
Heartbeat CPU 0 instructions: 200000003 cycles: 98202080 heartbeat IPC: 2.179 cumulative IPC: 1.751 (Simulation time: 01 hr 35 min 49 sec)
Heartbeat CPU 0 instructions: 210000001 cycles: 102986529 heartbeat IPC: 2.09 cumulative IPC: 1.769 (Simulation time: 01 hr 40 min 50 sec)
Heartbeat CPU 0 instructions: 220000000 cycles: 107744297 heartbeat IPC: 2.102 cumulative IPC: 1.786 (Simulation time: 01 hr 45 min 51 sec)
Heartbeat CPU 0 instructions: 230000002 cycles: 112801024 heartbeat IPC: 1.978 cumulative IPC: 1.795 (Simulation time: 01 hr 50 min 57 sec)
Heartbeat CPU 0 instructions: 240000000 cycles: 117476955 heartbeat IPC: 2.139 cumulative IPC: 1.811 (Simulation time: 01 hr 55 min 57 sec)
Heartbeat CPU 0 instructions: 250000000 cycles: 122442900 heartbeat IPC: 2.014 cumulative IPC: 1.82 (Simulation time: 02 hr 01 min 04 sec)
Heartbeat CPU 0 instructions: 260000000 cycles: 127279411 heartbeat IPC: 2.068 cumulative IPC: 1.83 (Simulation time: 02 hr 06 min 06 sec)
Heartbeat CPU 0 instructions: 270000002 cycles: 132023776 heartbeat IPC: 2.108 cumulative IPC: 1.841 (Simulation time: 02 hr 11 min 07 sec)
Heartbeat CPU 0 instructions: 280000002 cycles: 136786250 heartbeat IPC: 2.1 cumulative IPC: 1.851 (Simulation time: 02 hr 16 min 07 sec)
Heartbeat CPU 0 instructions: 290000001 cycles: 142032393 heartbeat IPC: 1.906 cumulative IPC: 1.853 (Simulation time: 02 hr 21 min 25 sec)
Heartbeat CPU 0 instructions: 300000003 cycles: 146900219 heartbeat IPC: 2.054 cumulative IPC: 1.861 (Simulation time: 02 hr 26 min 29 sec)
Heartbeat CPU 0 instructions: 310000001 cycles: 151944513 heartbeat IPC: 1.982 cumulative IPC: 1.865 (Simulation time: 02 hr 31 min 35 sec)
Heartbeat CPU 0 instructions: 320000003 cycles: 156986509 heartbeat IPC: 1.983 cumulative IPC: 1.869 (Simulation time: 02 hr 36 min 42 sec)
Heartbeat CPU 0 instructions: 330000003 cycles: 162050490 heartbeat IPC: 1.975 cumulative IPC: 1.873 (Simulation time: 02 hr 41 min 52 sec)
Heartbeat CPU 0 instructions: 340000000 cycles: 170140198 heartbeat IPC: 1.236 cumulative IPC: 1.84 (Simulation time: 02 hr 49 min 09 sec)
Heartbeat CPU 0 instructions: 350000000 cycles: 178336613 heartbeat IPC: 1.22 cumulative IPC: 1.809 (Simulation time: 02 hr 56 min 40 sec)
Heartbeat CPU 0 instructions: 360000004 cycles: 186543042 heartbeat IPC: 1.219 cumulative IPC: 1.782 (Simulation time: 03 hr 04 min 05 sec)
Heartbeat CPU 0 instructions: 370000000 cycles: 190849134 heartbeat IPC: 2.322 cumulative IPC: 1.795 (Simulation time: 03 hr 08 min 51 sec)
Heartbeat CPU 0 instructions: 380000001 cycles: 195645359 heartbeat IPC: 2.085 cumulative IPC: 1.802 (Simulation time: 03 hr 13 min 55 sec)
Heartbeat CPU 0 instructions: 390000002 cycles: 200385868 heartbeat IPC: 2.109 cumulative IPC: 1.81 (Simulation time: 03 hr 18 min 55 sec)
Heartbeat CPU 0 instructions: 400000004 cycles: 205267501 heartbeat IPC: 2.048 cumulative IPC: 1.816 (Simulation time: 03 hr 23 min 57 sec)
Heartbeat CPU 0 instructions: 410000000 cycles: 209856116 heartbeat IPC: 2.179 cumulative IPC: 1.824 (Simulation time: 03 hr 28 min 51 sec)
Heartbeat CPU 0 instructions: 420000000 cycles: 214764352 heartbeat IPC: 2.037 cumulative IPC: 1.83 (Simulation time: 03 hr 33 min 52 sec)
Heartbeat CPU 0 instructions: 430000001 cycles: 219126568 heartbeat IPC: 2.292 cumulative IPC: 1.839 (Simulation time: 03 hr 38 min 42 sec)
Heartbeat CPU 0 instructions: 440000000 cycles: 224333471 heartbeat IPC: 1.921 cumulative IPC: 1.841 (Simulation time: 03 hr 43 min 54 sec)
Heartbeat CPU 0 instructions: 450000002 cycles: 228865777 heartbeat IPC: 2.206 cumulative IPC: 1.849 (Simulation time: 03 hr 48 min 52 sec)
Heartbeat CPU 0 instructions: 460000000 cycles: 233522014 heartbeat IPC: 2.148 cumulative IPC: 1.855 (Simulation time: 03 hr 53 min 46 sec)
Heartbeat CPU 0 instructions: 470000000 cycles: 238375529 heartbeat IPC: 2.06 cumulative IPC: 1.86 (Simulation time: 03 hr 58 min 49 sec)
Heartbeat CPU 0 instructions: 480000003 cycles: 243012138 heartbeat IPC: 2.157 cumulative IPC: 1.866 (Simulation time: 04 hr 03 min 48 sec)
Heartbeat CPU 0 instructions: 490000000 cycles: 247537716 heartbeat IPC: 2.21 cumulative IPC: 1.872 (Simulation time: 04 hr 08 min 40 sec)
Heartbeat CPU 0 instructions: 500000000 cycles: 252466299 heartbeat IPC: 2.029 cumulative IPC: 1.876 (Simulation time: 04 hr 13 min 46 sec)
Heartbeat CPU 0 instructions: 510000003 cycles: 257950687 heartbeat IPC: 1.823 cumulative IPC: 1.874 (Simulation time: 04 hr 19 min 09 sec)
Heartbeat CPU 0 instructions: 520000001 cycles: 262472818 heartbeat IPC: 2.211 cumulative IPC: 1.88 (Simulation time: 04 hr 24 min 01 sec)
Heartbeat CPU 0 instructions: 530000002 cycles: 267462219 heartbeat IPC: 2.004 cumulative IPC: 1.883 (Simulation time: 04 hr 29 min 07 sec)
Heartbeat CPU 0 instructions: 540000000 cycles: 272435427 heartbeat IPC: 2.011 cumulative IPC: 1.885 (Simulation time: 04 hr 34 min 13 sec)
Heartbeat CPU 0 instructions: 550000001 cycles: 277139608 heartbeat IPC: 2.126 cumulative IPC: 1.89 (Simulation time: 04 hr 39 min 12 sec)
Heartbeat CPU 0 instructions: 560000000 cycles: 282149393 heartbeat IPC: 1.996 cumulative IPC: 1.892 (Simulation time: 04 hr 44 min 20 sec)
Heartbeat CPU 0 instructions: 570000004 cycles: 288175200 heartbeat IPC: 1.66 cumulative IPC: 1.887 (Simulation time: 04 hr 50 min 23 sec)
Heartbeat CPU 0 instructions: 580000003 cycles: 297053657 heartbeat IPC: 1.126 cumulative IPC: 1.863 (Simulation time: 04 hr 58 min 28 sec)
Heartbeat CPU 0 instructions: 590000002 cycles: 306944623 heartbeat IPC: 1.011 cumulative IPC: 1.834 (Simulation time: 05 hr 06 min 58 sec)
Heartbeat CPU 0 instructions: 600000000 cycles: 311366427 heartbeat IPC: 2.262 cumulative IPC: 1.841 (Simulation time: 05 hr 11 min 52 sec)
Heartbeat CPU 0 instructions: 610000002 cycles: 315762492 heartbeat IPC: 2.275 cumulative IPC: 1.847 (Simulation time: 05 hr 16 min 47 sec)
Heartbeat CPU 0 instructions: 620000000 cycles: 320503532 heartbeat IPC: 2.109 cumulative IPC: 1.851 (Simulation time: 05 hr 21 min 47 sec)
Heartbeat CPU 0 instructions: 630000002 cycles: 325493376 heartbeat IPC: 2.004 cumulative IPC: 1.853 (Simulation time: 05 hr 26 min 53 sec)
Heartbeat CPU 0 instructions: 640000001 cycles: 330306863 heartbeat IPC: 2.077 cumulative IPC: 1.857 (Simulation time: 05 hr 32 min 12 sec)
Heartbeat CPU 0 instructions: 650000000 cycles: 334825641 heartbeat IPC: 2.213 cumulative IPC: 1.862 (Simulation time: 05 hr 37 min 06 sec)
Simulation finished CPU 0 instructions: 600000001 cycles: 322288525 cumulative IPC: 1.862 (Simulation time: 05 hr 37 min 06 sec)
Simulation complete CPU 0 instructions: 600000001 cycles: 322288525 cumulative IPC: 1.862 (Simulation time: 05 hr 37 min 06 sec)

ChampSim completed all CPUs

=== Simulation ===
CPU 0 runs traces/400.perlbench-41B.champsimtrace.xz
Region of Interest Statistics

CPU 0 cumulative IPC: 1.862 instructions: 600000001 cycles: 322288525
CPU 0 Branch Prediction Accuracy: 93.95% MPKI: 12.5 Average ROB Occupancy at Mispredict: 29.43
Branch type MPKI
BRANCH_DIRECT_JUMP: 0.0123
BRANCH_INDIRECT: 0.323
BRANCH_CONDITIONAL: 12
BRANCH_DIRECT_CALL: 0.0043
BRANCH_INDIRECT_CALL: 0.2
BRANCH_RETURN: 0.00828

LLC TOTAL        ACCESS:     831640 HIT:     621521 MISS:     210119
LLC LOAD         ACCESS:     398241 HIT:     316597 MISS:      81644
LLC RFO          ACCESS:      32186 HIT:      24322 MISS:       7864
LLC PREFETCH     ACCESS:     298146 HIT:     185513 MISS:     112633
LLC WRITE        ACCESS:      84153 HIT:      84008 MISS:        145
LLC TRANSLATION  ACCESS:      18914 HIT:      11081 MISS:       7833
LLC PREFETCH REQUESTED:     302134 ISSUED:     298146 USEFUL:      42334 USELESS:      52935
LLC AVERAGE MISS LATENCY: 620.5 cycles
cpu0_DTLB TOTAL        ACCESS:  153680879 HIT:  153003959 MISS:     676920
cpu0_DTLB LOAD         ACCESS:  153680879 HIT:  153003959 MISS:     676920
cpu0_DTLB RFO          ACCESS:          0 HIT:          0 MISS:          0
cpu0_DTLB PREFETCH     ACCESS:          0 HIT:          0 MISS:          0
cpu0_DTLB WRITE        ACCESS:          0 HIT:          0 MISS:          0
cpu0_DTLB TRANSLATION  ACCESS:          0 HIT:          0 MISS:          0
cpu0_DTLB PREFETCH REQUESTED:          0 ISSUED:          0 USEFUL:          0 USELESS:          0
cpu0_DTLB AVERAGE MISS LATENCY: 12.85 cycles
cpu0_ITLB TOTAL        ACCESS:    4837641 HIT:    4779744 MISS:      57897
cpu0_ITLB LOAD         ACCESS:    4837641 HIT:    4779744 MISS:      57897
cpu0_ITLB RFO          ACCESS:          0 HIT:          0 MISS:          0
cpu0_ITLB PREFETCH     ACCESS:          0 HIT:          0 MISS:          0
cpu0_ITLB WRITE        ACCESS:          0 HIT:          0 MISS:          0
cpu0_ITLB TRANSLATION  ACCESS:          0 HIT:          0 MISS:          0
cpu0_ITLB PREFETCH REQUESTED:          0 ISSUED:          0 USEFUL:          0 USELESS:          0
cpu0_ITLB AVERAGE MISS LATENCY: 6.6 cycles
cpu0_L1D TOTAL        ACCESS:  200306063 HIT:  198604668 MISS:    1701395
cpu0_L1D LOAD         ACCESS:  117063024 HIT:  115738018 MISS:    1325006
cpu0_L1D RFO          ACCESS:          0 HIT:          0 MISS:          0
cpu0_L1D PREFETCH     ACCESS:          0 HIT:          0 MISS:          0
cpu0_L1D WRITE        ACCESS:   83218580 HIT:   82865612 MISS:     352968
cpu0_L1D TRANSLATION  ACCESS:      24459 HIT:       1038 MISS:      23421
cpu0_L1D PREFETCH REQUESTED:          0 ISSUED:          0 USEFUL:          0 USELESS:          0
cpu0_L1D AVERAGE MISS LATENCY: 40.62 cycles
cpu0_L1I TOTAL        ACCESS:    5579945 HIT:    4818072 MISS:     761873
cpu0_L1I LOAD         ACCESS:    5579945 HIT:    4818072 MISS:     761873
cpu0_L1I RFO          ACCESS:          0 HIT:          0 MISS:          0
cpu0_L1I PREFETCH     ACCESS:          0 HIT:          0 MISS:          0
cpu0_L1I WRITE        ACCESS:          0 HIT:          0 MISS:          0
cpu0_L1I TRANSLATION  ACCESS:          0 HIT:          0 MISS:          0
cpu0_L1I PREFETCH REQUESTED:          0 ISSUED:          0 USEFUL:          0 USELESS:          0
cpu0_L1I AVERAGE MISS LATENCY: 10.28 cycles
cpu0_L2C TOTAL        ACCESS:    1667993 HIT:    1217003 MISS:     450990
cpu0_L2C LOAD         ACCESS:    1317190 HIT:     918949 MISS:     398241
cpu0_L2C RFO          ACCESS:      88600 HIT:      56414 MISS:      32186
cpu0_L2C PREFETCH     ACCESS:          0 HIT:          0 MISS:          0
cpu0_L2C WRITE        ACCESS:     238861 HIT:     237212 MISS:       1649
cpu0_L2C TRANSLATION  ACCESS:      23342 HIT:       4428 MISS:      18914
cpu0_L2C PREFETCH REQUESTED:          0 ISSUED:          0 USEFUL:          0 USELESS:          0
cpu0_L2C AVERAGE MISS LATENCY: 145.6 cycles
cpu0_STLB TOTAL        ACCESS:     505202 HIT:     482413 MISS:      22789
cpu0_STLB LOAD         ACCESS:     505202 HIT:     482413 MISS:      22789
cpu0_STLB RFO          ACCESS:          0 HIT:          0 MISS:          0
cpu0_STLB PREFETCH     ACCESS:          0 HIT:          0 MISS:          0
cpu0_STLB WRITE        ACCESS:          0 HIT:          0 MISS:          0
cpu0_STLB TRANSLATION  ACCESS:          0 HIT:          0 MISS:          0
cpu0_STLB PREFETCH REQUESTED:          0 ISSUED:          0 USEFUL:          0 USELESS:          0
cpu0_STLB AVERAGE MISS LATENCY: 254.5 cycles

DRAM Statistics

Channel 0 RQ ROW_BUFFER_HIT:      70873
  ROW_BUFFER_MISS:     132633
 AVG DBUS CONGESTED CYCLE: 3.879
WQ ROW_BUFFER_HIT: Channel 0 
  ROW_BUFFER_MISS:       4751
  FULL:      12671
