WARNING: physical memory size is smaller than virtual memory size.

*** ChampSim Multicore Out-of-Order Simulator ***
Warmup Instructions: 50000000
Simulation Instructions: 600000000
Number of CPUs: 1
Page size: 4096

Off-chip DRAM Size: 4 GiB Channels: 1 Width: 64-bit Data Race: 3200 MT/s
Heartbeat CPU 0 instructions: 10000000 cycles: 2500061 heartbeat IPC: 4 cumulative IPC: 4 (Simulation time: 00 hr 03 min 22 sec)
Heartbeat CPU 0 instructions: 20000000 cycles: 5000061 heartbeat IPC: 4 cumulative IPC: 4 (Simulation time: 00 hr 06 min 42 sec)
Heartbeat CPU 0 instructions: 30000000 cycles: 7500061 heartbeat IPC: 4 cumulative IPC: 4 (Simulation time: 00 hr 10 min 00 sec)
Heartbeat CPU 0 instructions: 40000000 cycles: 10000061 heartbeat IPC: 4 cumulative IPC: 4 (Simulation time: 00 hr 13 min 19 sec)
Heartbeat CPU 0 instructions: 50000000 cycles: 12500061 heartbeat IPC: 4 cumulative IPC: 4 (Simulation time: 00 hr 16 min 51 sec)
Warmup finished CPU 0 instructions: 50000000 cycles: 12500062 cumulative IPC: 4 (Simulation time: 00 hr 16 min 51 sec)
Warmup complete CPU 0 instructions: 50000000 cycles: 12500062 cumulative IPC: 4 (Simulation time: 00 hr 16 min 51 sec)
Heartbeat CPU 0 instructions: 60000002 cycles: 16897168 heartbeat IPC: 2.274 cumulative IPC: 2.274 (Simulation time: 00 hr 21 min 42 sec)
Heartbeat CPU 0 instructions: 70000003 cycles: 21874323 heartbeat IPC: 2.009 cumulative IPC: 2.134 (Simulation time: 00 hr 26 min 49 sec)
Heartbeat CPU 0 instructions: 80000001 cycles: 27217652 heartbeat IPC: 1.871 cumulative IPC: 2.038 (Simulation time: 00 hr 32 min 09 sec)
Heartbeat CPU 0 instructions: 90000000 cycles: 31512174 heartbeat IPC: 2.329 cumulative IPC: 2.104 (Simulation time: 00 hr 36 min 55 sec)
Heartbeat CPU 0 instructions: 100000003 cycles: 36360283 heartbeat IPC: 2.063 cumulative IPC: 2.096 (Simulation time: 00 hr 41 min 58 sec)
Heartbeat CPU 0 instructions: 110000002 cycles: 41223823 heartbeat IPC: 2.056 cumulative IPC: 2.089 (Simulation time: 00 hr 47 min 00 sec)
Heartbeat CPU 0 instructions: 120000001 cycles: 46216185 heartbeat IPC: 2.003 cumulative IPC: 2.076 (Simulation time: 00 hr 52 min 08 sec)
Heartbeat CPU 0 instructions: 130000003 cycles: 50774631 heartbeat IPC: 2.194 cumulative IPC: 2.09 (Simulation time: 00 hr 57 min 02 sec)
Heartbeat CPU 0 instructions: 140000002 cycles: 55657500 heartbeat IPC: 2.048 cumulative IPC: 2.085 (Simulation time: 01 hr 02 min 08 sec)
Heartbeat CPU 0 instructions: 150000001 cycles: 60315882 heartbeat IPC: 2.147 cumulative IPC: 2.091 (Simulation time: 01 hr 07 min 03 sec)
Heartbeat CPU 0 instructions: 160000000 cycles: 64944965 heartbeat IPC: 2.16 cumulative IPC: 2.097 (Simulation time: 01 hr 12 min 08 sec)
Heartbeat CPU 0 instructions: 170000000 cycles: 70269944 heartbeat IPC: 1.878 cumulative IPC: 2.077 (Simulation time: 01 hr 17 min 29 sec)
Heartbeat CPU 0 instructions: 180000001 cycles: 75985244 heartbeat IPC: 1.75 cumulative IPC: 2.048 (Simulation time: 01 hr 23 min 03 sec)
Heartbeat CPU 0 instructions: 190000002 cycles: 80446549 heartbeat IPC: 2.241 cumulative IPC: 2.06 (Simulation time: 01 hr 27 min 57 sec)
Heartbeat CPU 0 instructions: 200000002 cycles: 85337187 heartbeat IPC: 2.045 cumulative IPC: 2.059 (Simulation time: 01 hr 33 min 03 sec)
Heartbeat CPU 0 instructions: 210000000 cycles: 90334775 heartbeat IPC: 2.001 cumulative IPC: 2.056 (Simulation time: 01 hr 38 min 22 sec)
Heartbeat CPU 0 instructions: 220000001 cycles: 95256096 heartbeat IPC: 2.032 cumulative IPC: 2.054 (Simulation time: 01 hr 43 min 27 sec)
Heartbeat CPU 0 instructions: 230000002 cycles: 100493367 heartbeat IPC: 1.909 cumulative IPC: 2.046 (Simulation time: 01 hr 48 min 42 sec)
Heartbeat CPU 0 instructions: 240000001 cycles: 105450230 heartbeat IPC: 2.017 cumulative IPC: 2.044 (Simulation time: 01 hr 53 min 50 sec)
Heartbeat CPU 0 instructions: 250000003 cycles: 110619443 heartbeat IPC: 1.935 cumulative IPC: 2.038 (Simulation time: 01 hr 59 min 03 sec)
Heartbeat CPU 0 instructions: 260000001 cycles: 115478521 heartbeat IPC: 2.058 cumulative IPC: 2.039 (Simulation time: 02 hr 04 min 09 sec)
Heartbeat CPU 0 instructions: 270000000 cycles: 122730418 heartbeat IPC: 1.379 cumulative IPC: 1.996 (Simulation time: 02 hr 10 min 50 sec)
Heartbeat CPU 0 instructions: 280000000 cycles: 132785131 heartbeat IPC: 0.9946 cumulative IPC: 1.912 (Simulation time: 02 hr 19 min 30 sec)
Heartbeat CPU 0 instructions: 290000001 cycles: 141459302 heartbeat IPC: 1.153 cumulative IPC: 1.861 (Simulation time: 02 hr 27 min 17 sec)
Heartbeat CPU 0 instructions: 300000003 cycles: 148716042 heartbeat IPC: 1.378 cumulative IPC: 1.835 (Simulation time: 02 hr 34 min 22 sec)
Heartbeat CPU 0 instructions: 310000004 cycles: 158669672 heartbeat IPC: 1.005 cumulative IPC: 1.779 (Simulation time: 02 hr 43 min 08 sec)
Heartbeat CPU 0 instructions: 320000004 cycles: 164205122 heartbeat IPC: 1.807 cumulative IPC: 1.78 (Simulation time: 02 hr 48 min 53 sec)
Heartbeat CPU 0 instructions: 330000000 cycles: 169413614 heartbeat IPC: 1.92 cumulative IPC: 1.784 (Simulation time: 02 hr 54 min 21 sec)
Heartbeat CPU 0 instructions: 340000001 cycles: 174190267 heartbeat IPC: 2.094 cumulative IPC: 1.794 (Simulation time: 02 hr 59 min 30 sec)
Heartbeat CPU 0 instructions: 350000000 cycles: 179164536 heartbeat IPC: 2.01 cumulative IPC: 1.8 (Simulation time: 03 hr 04 min 59 sec)
Heartbeat CPU 0 instructions: 360000003 cycles: 183931675 heartbeat IPC: 2.098 cumulative IPC: 1.808 (Simulation time: 03 hr 10 min 06 sec)
Heartbeat CPU 0 instructions: 370000001 cycles: 188673184 heartbeat IPC: 2.109 cumulative IPC: 1.816 (Simulation time: 03 hr 15 min 14 sec)
Heartbeat CPU 0 instructions: 380000004 cycles: 193678992 heartbeat IPC: 1.998 cumulative IPC: 1.821 (Simulation time: 03 hr 20 min 40 sec)
Heartbeat CPU 0 instructions: 390000002 cycles: 198593680 heartbeat IPC: 2.035 cumulative IPC: 1.827 (Simulation time: 03 hr 25 min 53 sec)
Heartbeat CPU 0 instructions: 400000000 cycles: 203575759 heartbeat IPC: 2.007 cumulative IPC: 1.832 (Simulation time: 03 hr 31 min 07 sec)
Heartbeat CPU 0 instructions: 410000000 cycles: 209522717 heartbeat IPC: 1.682 cumulative IPC: 1.827 (Simulation time: 03 hr 37 min 08 sec)
Heartbeat CPU 0 instructions: 420000001 cycles: 216540827 heartbeat IPC: 1.425 cumulative IPC: 1.813 (Simulation time: 03 hr 44 min 08 sec)
Heartbeat CPU 0 instructions: 430000000 cycles: 223082718 heartbeat IPC: 1.529 cumulative IPC: 1.805 (Simulation time: 03 hr 50 min 47 sec)
Heartbeat CPU 0 instructions: 440000002 cycles: 229516410 heartbeat IPC: 1.554 cumulative IPC: 1.797 (Simulation time: 03 hr 57 min 20 sec)
Heartbeat CPU 0 instructions: 450000001 cycles: 235786315 heartbeat IPC: 1.595 cumulative IPC: 1.791 (Simulation time: 04 hr 03 min 46 sec)
Heartbeat CPU 0 instructions: 460000002 cycles: 243340450 heartbeat IPC: 1.324 cumulative IPC: 1.776 (Simulation time: 04 hr 11 min 01 sec)
Heartbeat CPU 0 instructions: 470000000 cycles: 250210089 heartbeat IPC: 1.456 cumulative IPC: 1.767 (Simulation time: 04 hr 17 min 46 sec)
Heartbeat CPU 0 instructions: 480000000 cycles: 255190972 heartbeat IPC: 2.008 cumulative IPC: 1.772 (Simulation time: 04 hr 23 min 03 sec)
Heartbeat CPU 0 instructions: 490000001 cycles: 260167501 heartbeat IPC: 2.009 cumulative IPC: 1.777 (Simulation time: 04 hr 28 min 28 sec)
Heartbeat CPU 0 instructions: 500000002 cycles: 265120723 heartbeat IPC: 2.019 cumulative IPC: 1.781 (Simulation time: 04 hr 33 min 41 sec)
Heartbeat CPU 0 instructions: 510000000 cycles: 270111502 heartbeat IPC: 2.004 cumulative IPC: 1.786 (Simulation time: 04 hr 38 min 57 sec)
Heartbeat CPU 0 instructions: 520000000 cycles: 275120749 heartbeat IPC: 1.996 cumulative IPC: 1.79 (Simulation time: 04 hr 44 min 14 sec)
Heartbeat CPU 0 instructions: 530000001 cycles: 282054077 heartbeat IPC: 1.442 cumulative IPC: 1.781 (Simulation time: 04 hr 50 min 59 sec)
Heartbeat CPU 0 instructions: 540000000 cycles: 288931651 heartbeat IPC: 1.454 cumulative IPC: 1.773 (Simulation time: 04 hr 57 min 48 sec)
Heartbeat CPU 0 instructions: 550000002 cycles: 296582780 heartbeat IPC: 1.307 cumulative IPC: 1.76 (Simulation time: 05 hr 05 min 04 sec)
Heartbeat CPU 0 instructions: 560000004 cycles: 301024317 heartbeat IPC: 2.251 cumulative IPC: 1.768 (Simulation time: 05 hr 10 min 01 sec)
Heartbeat CPU 0 instructions: 570000001 cycles: 305385715 heartbeat IPC: 2.293 cumulative IPC: 1.775 (Simulation time: 05 hr 14 min 57 sec)
Heartbeat CPU 0 instructions: 580000003 cycles: 309540656 heartbeat IPC: 2.407 cumulative IPC: 1.784 (Simulation time: 05 hr 19 min 42 sec)
Heartbeat CPU 0 instructions: 590000001 cycles: 314368576 heartbeat IPC: 2.071 cumulative IPC: 1.789 (Simulation time: 05 hr 24 min 52 sec)
Heartbeat CPU 0 instructions: 600000003 cycles: 318968512 heartbeat IPC: 2.174 cumulative IPC: 1.795 (Simulation time: 05 hr 29 min 53 sec)
Heartbeat CPU 0 instructions: 610000001 cycles: 323777240 heartbeat IPC: 2.08 cumulative IPC: 1.799 (Simulation time: 05 hr 35 min 04 sec)
Heartbeat CPU 0 instructions: 620000000 cycles: 328797264 heartbeat IPC: 1.992 cumulative IPC: 1.802 (Simulation time: 05 hr 40 min 19 sec)
Heartbeat CPU 0 instructions: 630000002 cycles: 333010678 heartbeat IPC: 2.373 cumulative IPC: 1.81 (Simulation time: 05 hr 45 min 09 sec)
Heartbeat CPU 0 instructions: 640000004 cycles: 338288854 heartbeat IPC: 1.895 cumulative IPC: 1.811 (Simulation time: 05 hr 50 min 35 sec)
Heartbeat CPU 0 instructions: 650000001 cycles: 343032049 heartbeat IPC: 2.108 cumulative IPC: 1.815 (Simulation time: 05 hr 55 min 42 sec)
Simulation finished CPU 0 instructions: 600000001 cycles: 330531988 cumulative IPC: 1.815 (Simulation time: 05 hr 55 min 42 sec)
Simulation complete CPU 0 instructions: 600000001 cycles: 330531988 cumulative IPC: 1.815 (Simulation time: 05 hr 55 min 42 sec)

ChampSim completed all CPUs

=== Simulation ===
CPU 0 runs traces/400.perlbench-50B.champsimtrace.xz
Region of Interest Statistics

CPU 0 cumulative IPC: 1.815 instructions: 600000001 cycles: 330531988
CPU 0 Branch Prediction Accuracy: 93.83% MPKI: 12.71 Average ROB Occupancy at Mispredict: 29.1
Branch type MPKI
BRANCH_DIRECT_JUMP: 0.0176
BRANCH_INDIRECT: 0.38
BRANCH_CONDITIONAL: 11.9
BRANCH_DIRECT_CALL: 0.0067
BRANCH_INDIRECT_CALL: 0.431
BRANCH_RETURN: 0.0161

LLC TOTAL        ACCESS:    1371314 HIT:    1183826 MISS:     187488
LLC LOAD         ACCESS:     586445 HIT:     505357 MISS:      81088
LLC RFO          ACCESS:      48050 HIT:      38623 MISS:       9427
LLC PREFETCH     ACCESS:     586445 HIT:     499949 MISS:      86496
LLC WRITE        ACCESS:     128260 HIT:     127762 MISS:        498
LLC TRANSLATION  ACCESS:      22114 HIT:      12135 MISS:       9979
LLC PREFETCH REQUESTED:     586445 ISSUED:     586445 USEFUL:      30741 USELESS:      12606
LLC AVERAGE MISS LATENCY: 470.1 cycles
cpu0_DTLB TOTAL        ACCESS:  156798166 HIT:  155497473 MISS:    1300693
cpu0_DTLB LOAD         ACCESS:  156798166 HIT:  155497473 MISS:    1300693
cpu0_DTLB RFO          ACCESS:          0 HIT:          0 MISS:          0
cpu0_DTLB PREFETCH     ACCESS:          0 HIT:          0 MISS:          0
cpu0_DTLB WRITE        ACCESS:          0 HIT:          0 MISS:          0
cpu0_DTLB TRANSLATION  ACCESS:          0 HIT:          0 MISS:          0
cpu0_DTLB PREFETCH REQUESTED:          0 ISSUED:          0 USEFUL:          0 USELESS:          0
cpu0_DTLB AVERAGE MISS LATENCY: 10.41 cycles
cpu0_ITLB TOTAL        ACCESS:    8932097 HIT:    8733495 MISS:     198602
cpu0_ITLB LOAD         ACCESS:    8932097 HIT:    8733495 MISS:     198602
cpu0_ITLB RFO          ACCESS:          0 HIT:          0 MISS:          0
cpu0_ITLB PREFETCH     ACCESS:          0 HIT:          0 MISS:          0
cpu0_ITLB WRITE        ACCESS:          0 HIT:          0 MISS:          0
cpu0_ITLB TRANSLATION  ACCESS:          0 HIT:          0 MISS:          0
cpu0_ITLB PREFETCH REQUESTED:          0 ISSUED:          0 USEFUL:          0 USELESS:          0
cpu0_ITLB AVERAGE MISS LATENCY: 2.791 cycles
cpu0_L1D TOTAL        ACCESS:  203665112 HIT:  200028344 MISS:    3636768
cpu0_L1D LOAD         ACCESS:  117987689 HIT:  114992596 MISS:    2995093
cpu0_L1D RFO          ACCESS:          0 HIT:          0 MISS:          0
cpu0_L1D PREFETCH     ACCESS:          0 HIT:          0 MISS:          0
cpu0_L1D WRITE        ACCESS:   85648881 HIT:   85034340 MISS:     614541
cpu0_L1D TRANSLATION  ACCESS:      28542 HIT:       1408 MISS:      27134
cpu0_L1D PREFETCH REQUESTED:          0 ISSUED:          0 USEFUL:          0 USELESS:          0
cpu0_L1D AVERAGE MISS LATENCY: 20.98 cycles
cpu0_L1I TOTAL        ACCESS:   10370920 HIT:    8573784 MISS:    1797136
cpu0_L1I LOAD         ACCESS:   10370920 HIT:    8573784 MISS:    1797136
cpu0_L1I RFO          ACCESS:          0 HIT:          0 MISS:          0
cpu0_L1I PREFETCH     ACCESS:          0 HIT:          0 MISS:          0
cpu0_L1I WRITE        ACCESS:          0 HIT:          0 MISS:          0
cpu0_L1I TRANSLATION  ACCESS:          0 HIT:          0 MISS:          0
cpu0_L1I PREFETCH REQUESTED:          0 ISSUED:          0 USEFUL:          0 USELESS:          0
cpu0_L1I AVERAGE MISS LATENCY: 8.88 cycles
cpu0_L2C TOTAL        ACCESS:    3837292 HIT:    3177298 MISS:     659994
cpu0_L2C LOAD         ACCESS:    3106496 HIT:    2520051 MISS:     586445
cpu0_L2C RFO          ACCESS:     191777 HIT:     143727 MISS:      48050
cpu0_L2C PREFETCH     ACCESS:          0 HIT:          0 MISS:          0
cpu0_L2C WRITE        ACCESS:     511964 HIT:     508579 MISS:       3385
cpu0_L2C TRANSLATION  ACCESS:      27055 HIT:       4941 MISS:      22114
cpu0_L2C PREFETCH REQUESTED:          0 ISSUED:          0 USEFUL:          0 USELESS:          0
cpu0_L2C AVERAGE MISS LATENCY: 97.6 cycles
cpu0_STLB TOTAL        ACCESS:    1009154 HIT:     982462 MISS:      26692
cpu0_STLB LOAD         ACCESS:    1009154 HIT:     982462 MISS:      26692
cpu0_STLB RFO          ACCESS:          0 HIT:          0 MISS:          0
cpu0_STLB PREFETCH     ACCESS:          0 HIT:          0 MISS:          0
cpu0_STLB WRITE        ACCESS:          0 HIT:          0 MISS:          0
cpu0_STLB TRANSLATION  ACCESS:          0 HIT:          0 MISS:          0
cpu0_STLB PREFETCH REQUESTED:          0 ISSUED:          0 USEFUL:          0 USELESS:          0
cpu0_STLB AVERAGE MISS LATENCY: 280.6 cycles

DRAM Statistics

Channel 0 RQ ROW_BUFFER_HIT:      45359
  ROW_BUFFER_MISS:     114076
 AVG DBUS CONGESTED CYCLE: 3.802
WQ ROW_BUFFER_HIT: Channel 0 
  ROW_BUFFER_MISS:       1868
  FULL:       2827
