WARNING: physical memory size is smaller than virtual memory size.

*** ChampSim Multicore Out-of-Order Simulator ***
Warmup Instructions: 50000000
Simulation Instructions: 600000000
Number of CPUs: 1
Page size: 4096

Off-chip DRAM Size: 4 GiB Channels: 1 Width: 64-bit Data Race: 3200 MT/s
Heartbeat CPU 0 instructions: 10000001 cycles: 2500318 heartbeat IPC: 3.999 cumulative IPC: 3.999 (Simulation time: 00 hr 03 min 38 sec)
Heartbeat CPU 0 instructions: 20000002 cycles: 5037114 heartbeat IPC: 3.942 cumulative IPC: 3.971 (Simulation time: 00 hr 07 min 22 sec)
Heartbeat CPU 0 instructions: 30000002 cycles: 7537114 heartbeat IPC: 4 cumulative IPC: 3.98 (Simulation time: 00 hr 10 min 44 sec)
Heartbeat CPU 0 instructions: 40000002 cycles: 10037114 heartbeat IPC: 4 cumulative IPC: 3.985 (Simulation time: 00 hr 14 min 21 sec)
Heartbeat CPU 0 instructions: 50000002 cycles: 12537114 heartbeat IPC: 4 cumulative IPC: 3.988 (Simulation time: 00 hr 17 min 46 sec)
Warmup finished CPU 0 instructions: 50000002 cycles: 12537115 cumulative IPC: 3.988 (Simulation time: 00 hr 17 min 46 sec)
Warmup complete CPU 0 instructions: 50000002 cycles: 12537115 cumulative IPC: 3.988 (Simulation time: 00 hr 17 min 46 sec)
Heartbeat CPU 0 instructions: 60000000 cycles: 17680097 heartbeat IPC: 1.944 cumulative IPC: 1.944 (Simulation time: 00 hr 23 min 00 sec)
Heartbeat CPU 0 instructions: 70000002 cycles: 22548585 heartbeat IPC: 2.054 cumulative IPC: 1.998 (Simulation time: 00 hr 28 min 11 sec)
Heartbeat CPU 0 instructions: 80000001 cycles: 27882071 heartbeat IPC: 1.875 cumulative IPC: 1.955 (Simulation time: 00 hr 33 min 36 sec)
Heartbeat CPU 0 instructions: 90000001 cycles: 32730200 heartbeat IPC: 2.063 cumulative IPC: 1.981 (Simulation time: 00 hr 38 min 44 sec)
Heartbeat CPU 0 instructions: 100000000 cycles: 37813651 heartbeat IPC: 1.967 cumulative IPC: 1.978 (Simulation time: 00 hr 44 min 01 sec)
Heartbeat CPU 0 instructions: 110000000 cycles: 42674584 heartbeat IPC: 2.057 cumulative IPC: 1.991 (Simulation time: 00 hr 49 min 08 sec)
Heartbeat CPU 0 instructions: 120000001 cycles: 47846239 heartbeat IPC: 1.934 cumulative IPC: 1.982 (Simulation time: 00 hr 54 min 27 sec)
Heartbeat CPU 0 instructions: 130000001 cycles: 52971594 heartbeat IPC: 1.951 cumulative IPC: 1.979 (Simulation time: 00 hr 59 min 46 sec)
Heartbeat CPU 0 instructions: 140000001 cycles: 58248666 heartbeat IPC: 1.895 cumulative IPC: 1.969 (Simulation time: 01 hr 05 min 09 sec)
Heartbeat CPU 0 instructions: 150000001 cycles: 63533700 heartbeat IPC: 1.892 cumulative IPC: 1.961 (Simulation time: 01 hr 10 min 40 sec)
Heartbeat CPU 0 instructions: 160000004 cycles: 68705591 heartbeat IPC: 1.934 cumulative IPC: 1.958 (Simulation time: 01 hr 16 min 00 sec)
Heartbeat CPU 0 instructions: 170000000 cycles: 76193851 heartbeat IPC: 1.335 cumulative IPC: 1.885 (Simulation time: 01 hr 22 min 55 sec)
Heartbeat CPU 0 instructions: 180000004 cycles: 82740672 heartbeat IPC: 1.527 cumulative IPC: 1.852 (Simulation time: 01 hr 29 min 28 sec)
Heartbeat CPU 0 instructions: 190000001 cycles: 88861934 heartbeat IPC: 1.634 cumulative IPC: 1.834 (Simulation time: 01 hr 35 min 51 sec)
Heartbeat CPU 0 instructions: 200000003 cycles: 93338517 heartbeat IPC: 2.234 cumulative IPC: 1.856 (Simulation time: 01 hr 40 min 45 sec)
Heartbeat CPU 0 instructions: 210000001 cycles: 98026698 heartbeat IPC: 2.133 cumulative IPC: 1.872 (Simulation time: 01 hr 45 min 49 sec)
Heartbeat CPU 0 instructions: 220000000 cycles: 102711887 heartbeat IPC: 2.134 cumulative IPC: 1.885 (Simulation time: 01 hr 50 min 52 sec)
Heartbeat CPU 0 instructions: 230000002 cycles: 107573629 heartbeat IPC: 2.057 cumulative IPC: 1.894 (Simulation time: 01 hr 55 min 58 sec)
Heartbeat CPU 0 instructions: 240000000 cycles: 112137528 heartbeat IPC: 2.191 cumulative IPC: 1.908 (Simulation time: 02 hr 00 min 59 sec)
Heartbeat CPU 0 instructions: 250000000 cycles: 116957559 heartbeat IPC: 2.075 cumulative IPC: 1.915 (Simulation time: 02 hr 06 min 06 sec)
Heartbeat CPU 0 instructions: 260000000 cycles: 121656048 heartbeat IPC: 2.128 cumulative IPC: 1.925 (Simulation time: 02 hr 11 min 10 sec)
Heartbeat CPU 0 instructions: 270000002 cycles: 126318616 heartbeat IPC: 2.145 cumulative IPC: 1.934 (Simulation time: 02 hr 16 min 11 sec)
Heartbeat CPU 0 instructions: 280000002 cycles: 130978601 heartbeat IPC: 2.146 cumulative IPC: 1.942 (Simulation time: 02 hr 21 min 11 sec)
Heartbeat CPU 0 instructions: 290000001 cycles: 136143760 heartbeat IPC: 1.936 cumulative IPC: 1.942 (Simulation time: 02 hr 26 min 32 sec)
Heartbeat CPU 0 instructions: 300000003 cycles: 140896793 heartbeat IPC: 2.104 cumulative IPC: 1.948 (Simulation time: 02 hr 31 min 39 sec)
Heartbeat CPU 0 instructions: 310000001 cycles: 145857561 heartbeat IPC: 2.016 cumulative IPC: 1.95 (Simulation time: 02 hr 36 min 49 sec)
Heartbeat CPU 0 instructions: 320000003 cycles: 150813309 heartbeat IPC: 2.018 cumulative IPC: 1.953 (Simulation time: 02 hr 42 min 01 sec)
Heartbeat CPU 0 instructions: 330000003 cycles: 155747822 heartbeat IPC: 2.027 cumulative IPC: 1.955 (Simulation time: 02 hr 47 min 10 sec)
Heartbeat CPU 0 instructions: 340000000 cycles: 162349895 heartbeat IPC: 1.515 cumulative IPC: 1.936 (Simulation time: 02 hr 53 min 40 sec)
Heartbeat CPU 0 instructions: 350000000 cycles: 169154055 heartbeat IPC: 1.47 cumulative IPC: 1.916 (Simulation time: 03 hr 00 min 37 sec)
Heartbeat CPU 0 instructions: 360000004 cycles: 175455135 heartbeat IPC: 1.587 cumulative IPC: 1.903 (Simulation time: 03 hr 06 min 58 sec)
Heartbeat CPU 0 instructions: 370000000 cycles: 179648053 heartbeat IPC: 2.385 cumulative IPC: 1.915 (Simulation time: 03 hr 11 min 49 sec)
Heartbeat CPU 0 instructions: 380000001 cycles: 184360382 heartbeat IPC: 2.122 cumulative IPC: 1.921 (Simulation time: 03 hr 17 min 04 sec)
Heartbeat CPU 0 instructions: 390000002 cycles: 189036582 heartbeat IPC: 2.138 cumulative IPC: 1.926 (Simulation time: 03 hr 22 min 10 sec)
Heartbeat CPU 0 instructions: 400000004 cycles: 193867725 heartbeat IPC: 2.07 cumulative IPC: 1.93 (Simulation time: 03 hr 27 min 20 sec)
Heartbeat CPU 0 instructions: 410000000 cycles: 198354767 heartbeat IPC: 2.229 cumulative IPC: 1.937 (Simulation time: 03 hr 32 min 16 sec)
Heartbeat CPU 0 instructions: 420000000 cycles: 203131987 heartbeat IPC: 2.093 cumulative IPC: 1.941 (Simulation time: 03 hr 37 min 23 sec)
Heartbeat CPU 0 instructions: 430000001 cycles: 207411691 heartbeat IPC: 2.337 cumulative IPC: 1.95 (Simulation time: 03 hr 42 min 27 sec)
Heartbeat CPU 0 instructions: 440000000 cycles: 212482486 heartbeat IPC: 1.972 cumulative IPC: 1.951 (Simulation time: 03 hr 47 min 42 sec)
Heartbeat CPU 0 instructions: 450000002 cycles: 216904850 heartbeat IPC: 2.261 cumulative IPC: 1.957 (Simulation time: 03 hr 52 min 39 sec)
Heartbeat CPU 0 instructions: 460000000 cycles: 221490723 heartbeat IPC: 2.181 cumulative IPC: 1.962 (Simulation time: 03 hr 57 min 40 sec)
Heartbeat CPU 0 instructions: 470000000 cycles: 226282683 heartbeat IPC: 2.087 cumulative IPC: 1.965 (Simulation time: 04 hr 02 min 48 sec)
Heartbeat CPU 0 instructions: 480000003 cycles: 230840689 heartbeat IPC: 2.194 cumulative IPC: 1.97 (Simulation time: 04 hr 07 min 48 sec)
Heartbeat CPU 0 instructions: 490000000 cycles: 235308751 heartbeat IPC: 2.238 cumulative IPC: 1.975 (Simulation time: 04 hr 12 min 45 sec)
Heartbeat CPU 0 instructions: 500000000 cycles: 240191498 heartbeat IPC: 2.048 cumulative IPC: 1.977 (Simulation time: 04 hr 17 min 58 sec)
Heartbeat CPU 0 instructions: 510000003 cycles: 245586187 heartbeat IPC: 1.854 cumulative IPC: 1.974 (Simulation time: 04 hr 23 min 39 sec)
Heartbeat CPU 0 instructions: 520000001 cycles: 250032858 heartbeat IPC: 2.249 cumulative IPC: 1.979 (Simulation time: 04 hr 28 min 38 sec)
Heartbeat CPU 0 instructions: 530000002 cycles: 254979156 heartbeat IPC: 2.022 cumulative IPC: 1.98 (Simulation time: 04 hr 33 min 54 sec)
Heartbeat CPU 0 instructions: 540000000 cycles: 259900539 heartbeat IPC: 2.032 cumulative IPC: 1.981 (Simulation time: 04 hr 39 min 05 sec)
Heartbeat CPU 0 instructions: 550000001 cycles: 264546281 heartbeat IPC: 2.153 cumulative IPC: 1.984 (Simulation time: 04 hr 44 min 11 sec)
Heartbeat CPU 0 instructions: 560000000 cycles: 269466537 heartbeat IPC: 2.032 cumulative IPC: 1.985 (Simulation time: 04 hr 49 min 21 sec)
Heartbeat CPU 0 instructions: 570000004 cycles: 274936104 heartbeat IPC: 1.828 cumulative IPC: 1.982 (Simulation time: 04 hr 55 min 02 sec)
Heartbeat CPU 0 instructions: 580000003 cycles: 281837109 heartbeat IPC: 1.449 cumulative IPC: 1.968 (Simulation time: 05 hr 01 min 48 sec)
Heartbeat CPU 0 instructions: 590000002 cycles: 288868134 heartbeat IPC: 1.422 cumulative IPC: 1.954 (Simulation time: 05 hr 08 min 42 sec)
Heartbeat CPU 0 instructions: 600000000 cycles: 293194941 heartbeat IPC: 2.311 cumulative IPC: 1.96 (Simulation time: 05 hr 13 min 34 sec)
Heartbeat CPU 0 instructions: 610000002 cycles: 297494272 heartbeat IPC: 2.326 cumulative IPC: 1.965 (Simulation time: 05 hr 18 min 23 sec)
Heartbeat CPU 0 instructions: 620000000 cycles: 302189239 heartbeat IPC: 2.13 cumulative IPC: 1.968 (Simulation time: 05 hr 23 min 30 sec)
Heartbeat CPU 0 instructions: 630000002 cycles: 307100222 heartbeat IPC: 2.036 cumulative IPC: 1.969 (Simulation time: 05 hr 28 min 41 sec)
Heartbeat CPU 0 instructions: 640000001 cycles: 311875832 heartbeat IPC: 2.094 cumulative IPC: 1.971 (Simulation time: 05 hr 33 min 50 sec)
Heartbeat CPU 0 instructions: 650000000 cycles: 316359667 heartbeat IPC: 2.23 cumulative IPC: 1.975 (Simulation time: 05 hr 38 min 47 sec)
Simulation finished CPU 0 instructions: 600000001 cycles: 303822554 cumulative IPC: 1.975 (Simulation time: 05 hr 38 min 47 sec)
Simulation complete CPU 0 instructions: 600000001 cycles: 303822554 cumulative IPC: 1.975 (Simulation time: 05 hr 38 min 47 sec)

ChampSim completed all CPUs

=== Simulation ===
CPU 0 runs traces/400.perlbench-41B.champsimtrace.xz
Region of Interest Statistics

CPU 0 cumulative IPC: 1.975 instructions: 600000001 cycles: 303822554
CPU 0 Branch Prediction Accuracy: 93.95% MPKI: 12.5 Average ROB Occupancy at Mispredict: 29.26
Branch type MPKI
BRANCH_DIRECT_JUMP: 0.0123
BRANCH_INDIRECT: 0.323
BRANCH_CONDITIONAL: 12
BRANCH_DIRECT_CALL: 0.0043
BRANCH_INDIRECT_CALL: 0.2
BRANCH_RETURN: 0.00828

LLC TOTAL        ACCESS:     939937 HIT:     863771 MISS:      76166
LLC LOAD         ACCESS:     401292 HIT:     370346 MISS:      30946
LLC RFO          ACCESS:      32803 HIT:      27806 MISS:       4997
LLC PREFETCH     ACCESS:     401292 HIT:     368869 MISS:      32423
LLC WRITE        ACCESS:      85458 HIT:      85002 MISS:        456
LLC TRANSLATION  ACCESS:      19092 HIT:      11748 MISS:       7344
LLC PREFETCH REQUESTED:     401292 ISSUED:     401292 USEFUL:      10063 USELESS:       8360
LLC AVERAGE MISS LATENCY: 495.1 cycles
cpu0_DTLB TOTAL        ACCESS:  153695654 HIT:  153019380 MISS:     676274
cpu0_DTLB LOAD         ACCESS:  153695654 HIT:  153019380 MISS:     676274
cpu0_DTLB RFO          ACCESS:          0 HIT:          0 MISS:          0
cpu0_DTLB PREFETCH     ACCESS:          0 HIT:          0 MISS:          0
cpu0_DTLB WRITE        ACCESS:          0 HIT:          0 MISS:          0
cpu0_DTLB TRANSLATION  ACCESS:          0 HIT:          0 MISS:          0
cpu0_DTLB PREFETCH REQUESTED:          0 ISSUED:          0 USEFUL:          0 USELESS:          0
cpu0_DTLB AVERAGE MISS LATENCY: 11.44 cycles
cpu0_ITLB TOTAL        ACCESS:    4838981 HIT:    4781065 MISS:      57916
cpu0_ITLB LOAD         ACCESS:    4838981 HIT:    4781065 MISS:      57916
cpu0_ITLB RFO          ACCESS:          0 HIT:          0 MISS:          0
cpu0_ITLB PREFETCH     ACCESS:          0 HIT:          0 MISS:          0
cpu0_ITLB WRITE        ACCESS:          0 HIT:          0 MISS:          0
cpu0_ITLB TRANSLATION  ACCESS:          0 HIT:          0 MISS:          0
cpu0_ITLB PREFETCH REQUESTED:          0 ISSUED:          0 USEFUL:          0 USELESS:          0
cpu0_ITLB AVERAGE MISS LATENCY: 4.952 cycles
cpu0_L1D TOTAL        ACCESS:  200328771 HIT:  198646477 MISS:    1682294
cpu0_L1D LOAD         ACCESS:  117085779 HIT:  115774529 MISS:    1311250
cpu0_L1D RFO          ACCESS:          0 HIT:          0 MISS:          0
cpu0_L1D PREFETCH     ACCESS:          0 HIT:          0 MISS:          0
cpu0_L1D WRITE        ACCESS:   83218530 HIT:   82870909 MISS:     347621
cpu0_L1D TRANSLATION  ACCESS:      24462 HIT:       1039 MISS:      23423
cpu0_L1D PREFETCH REQUESTED:          0 ISSUED:          0 USEFUL:          0 USELESS:          0
cpu0_L1D AVERAGE MISS LATENCY: 22.15 cycles
cpu0_L1I TOTAL        ACCESS:    5581162 HIT:    4819650 MISS:     761512
cpu0_L1I LOAD         ACCESS:    5581162 HIT:    4819650 MISS:     761512
cpu0_L1I RFO          ACCESS:          0 HIT:          0 MISS:          0
cpu0_L1I PREFETCH     ACCESS:          0 HIT:          0 MISS:          0
cpu0_L1I WRITE        ACCESS:          0 HIT:          0 MISS:          0
cpu0_L1I TRANSLATION  ACCESS:          0 HIT:          0 MISS:          0
cpu0_L1I PREFETCH REQUESTED:          0 ISSUED:          0 USEFUL:          0 USELESS:          0
cpu0_L1I AVERAGE MISS LATENCY: 8.654 cycles
cpu0_L2C TOTAL        ACCESS:    1668085 HIT:    1213060 MISS:     455025
cpu0_L2C LOAD         ACCESS:    1317185 HIT:     915893 MISS:     401292
cpu0_L2C RFO          ACCESS:      88580 HIT:      55777 MISS:      32803
cpu0_L2C PREFETCH     ACCESS:          0 HIT:          0 MISS:          0
cpu0_L2C WRITE        ACCESS:     238978 HIT:     237140 MISS:       1838
cpu0_L2C TRANSLATION  ACCESS:      23342 HIT:       4250 MISS:      19092
cpu0_L2C PREFETCH REQUESTED:          0 ISSUED:          0 USEFUL:          0 USELESS:          0
cpu0_L2C AVERAGE MISS LATENCY: 70.41 cycles
cpu0_STLB TOTAL        ACCESS:     505040 HIT:     482251 MISS:      22789
cpu0_STLB LOAD         ACCESS:     505040 HIT:     482251 MISS:      22789
cpu0_STLB RFO          ACCESS:          0 HIT:          0 MISS:          0
cpu0_STLB PREFETCH     ACCESS:          0 HIT:          0 MISS:          0
cpu0_STLB WRITE        ACCESS:          0 HIT:          0 MISS:          0
cpu0_STLB TRANSLATION  ACCESS:          0 HIT:          0 MISS:          0
cpu0_STLB PREFETCH REQUESTED:          0 ISSUED:          0 USEFUL:          0 USELESS:          0
cpu0_STLB AVERAGE MISS LATENCY: 207 cycles

DRAM Statistics

Channel 0 RQ ROW_BUFFER_HIT:      15731
  ROW_BUFFER_MISS:      50088
 AVG DBUS CONGESTED CYCLE: 3.798
WQ ROW_BUFFER_HIT: Channel 0 
  ROW_BUFFER_MISS:       1188
  FULL:       2365
