WARNING: physical memory size is smaller than virtual memory size.

*** ChampSim Multicore Out-of-Order Simulator ***
Warmup Instructions: 50000000
Simulation Instructions: 600000000
Number of CPUs: 1
Page size: 4096

Initialize SIGNATURE TABLE
ST_SET: 1
ST_WAY: 256
ST_TAG_BIT: 16
ST_TAG_MASK: ffff

Initialize PATTERN TABLE
PT_SET: 512
PT_WAY: 4
SIG_DELTA_BIT: 7
C_SIG_BIT: 4
C_DELTA_BIT: 4

Initialize PREFETCH FILTER
FILTER_SET: 1024
Off-chip DRAM Size: 4 GiB Channels: 1 Width: 64-bit Data Race: 3200 MT/s
Heartbeat CPU 0 instructions: 10000001 cycles: 2500318 heartbeat IPC: 3.999 cumulative IPC: 3.999 (Simulation time: 00 hr 03 min 37 sec)
Heartbeat CPU 0 instructions: 20000002 cycles: 5037128 heartbeat IPC: 3.942 cumulative IPC: 3.971 (Simulation time: 00 hr 07 min 19 sec)
Heartbeat CPU 0 instructions: 30000002 cycles: 7537128 heartbeat IPC: 4 cumulative IPC: 3.98 (Simulation time: 00 hr 10 min 42 sec)
Heartbeat CPU 0 instructions: 40000002 cycles: 10037128 heartbeat IPC: 4 cumulative IPC: 3.985 (Simulation time: 00 hr 14 min 07 sec)
Heartbeat CPU 0 instructions: 50000002 cycles: 12537128 heartbeat IPC: 4 cumulative IPC: 3.988 (Simulation time: 00 hr 17 min 31 sec)
Warmup finished CPU 0 instructions: 50000002 cycles: 12537129 cumulative IPC: 3.988 (Simulation time: 00 hr 17 min 31 sec)
Warmup complete CPU 0 instructions: 50000002 cycles: 12537129 cumulative IPC: 3.988 (Simulation time: 00 hr 17 min 31 sec)
Heartbeat CPU 0 instructions: 60000000 cycles: 17714758 heartbeat IPC: 1.931 cumulative IPC: 1.931 (Simulation time: 00 hr 22 min 59 sec)
Heartbeat CPU 0 instructions: 70000002 cycles: 22619294 heartbeat IPC: 2.039 cumulative IPC: 1.984 (Simulation time: 00 hr 28 min 12 sec)
Heartbeat CPU 0 instructions: 80000001 cycles: 27983378 heartbeat IPC: 1.864 cumulative IPC: 1.942 (Simulation time: 00 hr 33 min 40 sec)
Heartbeat CPU 0 instructions: 90000001 cycles: 32856453 heartbeat IPC: 2.052 cumulative IPC: 1.969 (Simulation time: 00 hr 38 min 52 sec)
Heartbeat CPU 0 instructions: 100000000 cycles: 37970220 heartbeat IPC: 1.956 cumulative IPC: 1.966 (Simulation time: 00 hr 44 min 11 sec)
Heartbeat CPU 0 instructions: 110000000 cycles: 42848557 heartbeat IPC: 2.05 cumulative IPC: 1.979 (Simulation time: 00 hr 49 min 33 sec)
Heartbeat CPU 0 instructions: 120000001 cycles: 48042522 heartbeat IPC: 1.925 cumulative IPC: 1.972 (Simulation time: 00 hr 54 min 55 sec)
Heartbeat CPU 0 instructions: 130000001 cycles: 53198396 heartbeat IPC: 1.94 cumulative IPC: 1.967 (Simulation time: 01 hr 00 min 17 sec)
Heartbeat CPU 0 instructions: 140000001 cycles: 58496788 heartbeat IPC: 1.887 cumulative IPC: 1.958 (Simulation time: 01 hr 05 min 40 sec)
Heartbeat CPU 0 instructions: 150000001 cycles: 63795586 heartbeat IPC: 1.887 cumulative IPC: 1.951 (Simulation time: 01 hr 11 min 06 sec)
Heartbeat CPU 0 instructions: 160000004 cycles: 68998618 heartbeat IPC: 1.922 cumulative IPC: 1.948 (Simulation time: 01 hr 16 min 29 sec)
Heartbeat CPU 0 instructions: 170000000 cycles: 76756268 heartbeat IPC: 1.289 cumulative IPC: 1.869 (Simulation time: 01 hr 23 min 41 sec)
Heartbeat CPU 0 instructions: 180000004 cycles: 83296300 heartbeat IPC: 1.529 cumulative IPC: 1.837 (Simulation time: 01 hr 30 min 21 sec)
Heartbeat CPU 0 instructions: 190000001 cycles: 89367370 heartbeat IPC: 1.647 cumulative IPC: 1.822 (Simulation time: 01 hr 36 min 38 sec)
Heartbeat CPU 0 instructions: 200000003 cycles: 93839313 heartbeat IPC: 2.236 cumulative IPC: 1.845 (Simulation time: 01 hr 41 min 35 sec)
Heartbeat CPU 0 instructions: 210000001 cycles: 98525153 heartbeat IPC: 2.134 cumulative IPC: 1.861 (Simulation time: 01 hr 46 min 42 sec)
Heartbeat CPU 0 instructions: 220000000 cycles: 103210794 heartbeat IPC: 2.134 cumulative IPC: 1.875 (Simulation time: 01 hr 51 min 46 sec)
Heartbeat CPU 0 instructions: 230000002 cycles: 108062923 heartbeat IPC: 2.061 cumulative IPC: 1.884 (Simulation time: 01 hr 56 min 48 sec)
Heartbeat CPU 0 instructions: 240000000 cycles: 112619062 heartbeat IPC: 2.195 cumulative IPC: 1.898 (Simulation time: 02 hr 01 min 45 sec)
Heartbeat CPU 0 instructions: 250000000 cycles: 117427108 heartbeat IPC: 2.08 cumulative IPC: 1.907 (Simulation time: 02 hr 06 min 53 sec)
Heartbeat CPU 0 instructions: 260000000 cycles: 122105921 heartbeat IPC: 2.137 cumulative IPC: 1.917 (Simulation time: 02 hr 11 min 54 sec)
Heartbeat CPU 0 instructions: 270000002 cycles: 126754163 heartbeat IPC: 2.151 cumulative IPC: 1.926 (Simulation time: 02 hr 16 min 58 sec)
Heartbeat CPU 0 instructions: 280000002 cycles: 131392619 heartbeat IPC: 2.156 cumulative IPC: 1.935 (Simulation time: 02 hr 22 min 01 sec)
Heartbeat CPU 0 instructions: 290000001 cycles: 136546915 heartbeat IPC: 1.94 cumulative IPC: 1.935 (Simulation time: 02 hr 27 min 35 sec)
Heartbeat CPU 0 instructions: 300000003 cycles: 141265012 heartbeat IPC: 2.119 cumulative IPC: 1.942 (Simulation time: 02 hr 32 min 55 sec)
Heartbeat CPU 0 instructions: 310000001 cycles: 146187916 heartbeat IPC: 2.031 cumulative IPC: 1.945 (Simulation time: 02 hr 38 min 05 sec)
Heartbeat CPU 0 instructions: 320000003 cycles: 151107952 heartbeat IPC: 2.033 cumulative IPC: 1.948 (Simulation time: 02 hr 43 min 16 sec)
Heartbeat CPU 0 instructions: 330000003 cycles: 155998962 heartbeat IPC: 2.045 cumulative IPC: 1.952 (Simulation time: 02 hr 48 min 24 sec)
Heartbeat CPU 0 instructions: 340000000 cycles: 162377833 heartbeat IPC: 1.568 cumulative IPC: 1.935 (Simulation time: 02 hr 54 min 44 sec)
Heartbeat CPU 0 instructions: 350000000 cycles: 169159219 heartbeat IPC: 1.475 cumulative IPC: 1.915 (Simulation time: 03 hr 01 min 28 sec)
Heartbeat CPU 0 instructions: 360000004 cycles: 175492172 heartbeat IPC: 1.579 cumulative IPC: 1.902 (Simulation time: 03 hr 07 min 53 sec)
Heartbeat CPU 0 instructions: 370000000 cycles: 179683788 heartbeat IPC: 2.386 cumulative IPC: 1.914 (Simulation time: 03 hr 12 min 40 sec)
Heartbeat CPU 0 instructions: 380000001 cycles: 184398109 heartbeat IPC: 2.121 cumulative IPC: 1.92 (Simulation time: 03 hr 17 min 51 sec)
Heartbeat CPU 0 instructions: 390000002 cycles: 189068533 heartbeat IPC: 2.141 cumulative IPC: 1.926 (Simulation time: 03 hr 22 min 56 sec)
Heartbeat CPU 0 instructions: 400000004 cycles: 193899701 heartbeat IPC: 2.07 cumulative IPC: 1.93 (Simulation time: 03 hr 28 min 06 sec)
Heartbeat CPU 0 instructions: 410000000 cycles: 198383224 heartbeat IPC: 2.23 cumulative IPC: 1.937 (Simulation time: 03 hr 33 min 01 sec)
Heartbeat CPU 0 instructions: 420000000 cycles: 203157842 heartbeat IPC: 2.094 cumulative IPC: 1.941 (Simulation time: 03 hr 38 min 10 sec)
Heartbeat CPU 0 instructions: 430000001 cycles: 207432905 heartbeat IPC: 2.339 cumulative IPC: 1.95 (Simulation time: 03 hr 43 min 05 sec)
Heartbeat CPU 0 instructions: 440000000 cycles: 212491631 heartbeat IPC: 1.977 cumulative IPC: 1.95 (Simulation time: 03 hr 48 min 21 sec)
Heartbeat CPU 0 instructions: 450000002 cycles: 216905624 heartbeat IPC: 2.266 cumulative IPC: 1.957 (Simulation time: 03 hr 53 min 18 sec)
Heartbeat CPU 0 instructions: 460000000 cycles: 221478131 heartbeat IPC: 2.187 cumulative IPC: 1.962 (Simulation time: 03 hr 58 min 18 sec)
Heartbeat CPU 0 instructions: 470000000 cycles: 226261213 heartbeat IPC: 2.091 cumulative IPC: 1.965 (Simulation time: 04 hr 03 min 25 sec)
Heartbeat CPU 0 instructions: 480000003 cycles: 230813455 heartbeat IPC: 2.197 cumulative IPC: 1.97 (Simulation time: 04 hr 08 min 36 sec)
Heartbeat CPU 0 instructions: 490000000 cycles: 235267727 heartbeat IPC: 2.245 cumulative IPC: 1.975 (Simulation time: 04 hr 13 min 33 sec)
Heartbeat CPU 0 instructions: 500000000 cycles: 240144622 heartbeat IPC: 2.05 cumulative IPC: 1.977 (Simulation time: 04 hr 18 min 45 sec)
Heartbeat CPU 0 instructions: 510000003 cycles: 245528404 heartbeat IPC: 1.857 cumulative IPC: 1.974 (Simulation time: 04 hr 24 min 11 sec)
Heartbeat CPU 0 instructions: 520000001 cycles: 249949526 heartbeat IPC: 2.262 cumulative IPC: 1.98 (Simulation time: 04 hr 29 min 08 sec)
Heartbeat CPU 0 instructions: 530000002 cycles: 254875120 heartbeat IPC: 2.03 cumulative IPC: 1.981 (Simulation time: 04 hr 34 min 20 sec)
Heartbeat CPU 0 instructions: 540000000 cycles: 259772073 heartbeat IPC: 2.042 cumulative IPC: 1.982 (Simulation time: 04 hr 39 min 29 sec)
Heartbeat CPU 0 instructions: 550000001 cycles: 264401002 heartbeat IPC: 2.16 cumulative IPC: 1.985 (Simulation time: 04 hr 44 min 44 sec)
Heartbeat CPU 0 instructions: 560000000 cycles: 269295732 heartbeat IPC: 2.043 cumulative IPC: 1.986 (Simulation time: 04 hr 49 min 56 sec)
Heartbeat CPU 0 instructions: 570000004 cycles: 274631846 heartbeat IPC: 1.874 cumulative IPC: 1.984 (Simulation time: 04 hr 55 min 33 sec)
Heartbeat CPU 0 instructions: 580000003 cycles: 281313264 heartbeat IPC: 1.497 cumulative IPC: 1.972 (Simulation time: 05 hr 02 min 09 sec)
Heartbeat CPU 0 instructions: 590000002 cycles: 288225716 heartbeat IPC: 1.447 cumulative IPC: 1.959 (Simulation time: 05 hr 09 min 01 sec)
Heartbeat CPU 0 instructions: 600000000 cycles: 292554177 heartbeat IPC: 2.31 cumulative IPC: 1.964 (Simulation time: 05 hr 13 min 51 sec)
Heartbeat CPU 0 instructions: 610000002 cycles: 296850071 heartbeat IPC: 2.328 cumulative IPC: 1.97 (Simulation time: 05 hr 18 min 39 sec)
Heartbeat CPU 0 instructions: 620000000 cycles: 301547368 heartbeat IPC: 2.129 cumulative IPC: 1.972 (Simulation time: 05 hr 23 min 44 sec)
Heartbeat CPU 0 instructions: 630000002 cycles: 306454334 heartbeat IPC: 2.038 cumulative IPC: 1.973 (Simulation time: 05 hr 28 min 52 sec)
Heartbeat CPU 0 instructions: 640000001 cycles: 311228965 heartbeat IPC: 2.094 cumulative IPC: 1.975 (Simulation time: 05 hr 34 min 02 sec)
Heartbeat CPU 0 instructions: 650000000 cycles: 315712776 heartbeat IPC: 2.23 cumulative IPC: 1.979 (Simulation time: 05 hr 39 min 00 sec)
Simulation finished CPU 0 instructions: 600000001 cycles: 303175649 cumulative IPC: 1.979 (Simulation time: 05 hr 39 min 00 sec)
Simulation complete CPU 0 instructions: 600000001 cycles: 303175649 cumulative IPC: 1.979 (Simulation time: 05 hr 39 min 00 sec)

ChampSim completed all CPUs

=== Simulation ===
CPU 0 runs traces/400.perlbench-41B.champsimtrace.xz
Region of Interest Statistics

CPU 0 cumulative IPC: 1.979 instructions: 600000001 cycles: 303175649
CPU 0 Branch Prediction Accuracy: 93.95% MPKI: 12.5 Average ROB Occupancy at Mispredict: 29.25
Branch type MPKI
BRANCH_DIRECT_JUMP: 0.0123
BRANCH_INDIRECT: 0.323
BRANCH_CONDITIONAL: 12
BRANCH_DIRECT_CALL: 0.0043
BRANCH_INDIRECT_CALL: 0.2
BRANCH_RETURN: 0.00828

LLC TOTAL        ACCESS:     925306 HIT:     791685 MISS:     133621
LLC LOAD         ACCESS:     403740 HIT:     371274 MISS:      32466
LLC RFO          ACCESS:      32588 HIT:      28545 MISS:       4043
LLC PREFETCH     ACCESS:     383949 HIT:     293504 MISS:      90445
LLC WRITE        ACCESS:      85828 HIT:      85760 MISS:         68
LLC TRANSLATION  ACCESS:      19201 HIT:      12602 MISS:       6599
LLC PREFETCH REQUESTED:     383949 ISSUED:     383949 USEFUL:        588 USELESS:         11
LLC AVERAGE MISS LATENCY: 177 cycles
cpu0_DTLB TOTAL        ACCESS:  153698435 HIT:  153021905 MISS:     676530
cpu0_DTLB LOAD         ACCESS:  153698435 HIT:  153021905 MISS:     676530
cpu0_DTLB RFO          ACCESS:          0 HIT:          0 MISS:          0
cpu0_DTLB PREFETCH     ACCESS:          0 HIT:          0 MISS:          0
cpu0_DTLB WRITE        ACCESS:          0 HIT:          0 MISS:          0
cpu0_DTLB TRANSLATION  ACCESS:          0 HIT:          0 MISS:          0
cpu0_DTLB PREFETCH REQUESTED:          0 ISSUED:          0 USEFUL:          0 USELESS:          0
cpu0_DTLB AVERAGE MISS LATENCY: 11.95 cycles
cpu0_ITLB TOTAL        ACCESS:    4838930 HIT:    4781071 MISS:      57859
cpu0_ITLB LOAD         ACCESS:    4838930 HIT:    4781071 MISS:      57859
cpu0_ITLB RFO          ACCESS:          0 HIT:          0 MISS:          0
cpu0_ITLB PREFETCH     ACCESS:          0 HIT:          0 MISS:          0
cpu0_ITLB WRITE        ACCESS:          0 HIT:          0 MISS:          0
cpu0_ITLB TRANSLATION  ACCESS:          0 HIT:          0 MISS:          0
cpu0_ITLB PREFETCH REQUESTED:          0 ISSUED:          0 USEFUL:          0 USELESS:          0
cpu0_ITLB AVERAGE MISS LATENCY: 4.911 cycles
cpu0_L1D TOTAL        ACCESS:  200330606 HIT:  198650440 MISS:    1680166
cpu0_L1D LOAD         ACCESS:  117087758 HIT:  115774728 MISS:    1313030
cpu0_L1D RFO          ACCESS:          0 HIT:          0 MISS:          0
cpu0_L1D PREFETCH     ACCESS:          0 HIT:          0 MISS:          0
cpu0_L1D WRITE        ACCESS:   83218380 HIT:   82874666 MISS:     343714
cpu0_L1D TRANSLATION  ACCESS:      24468 HIT:       1046 MISS:      23422
cpu0_L1D PREFETCH REQUESTED:          0 ISSUED:          0 USEFUL:          0 USELESS:          0
cpu0_L1D AVERAGE MISS LATENCY: 22.31 cycles
cpu0_L1I TOTAL        ACCESS:    5581218 HIT:    4819673 MISS:     761545
cpu0_L1I LOAD         ACCESS:    5581218 HIT:    4819673 MISS:     761545
cpu0_L1I RFO          ACCESS:          0 HIT:          0 MISS:          0
cpu0_L1I PREFETCH     ACCESS:          0 HIT:          0 MISS:          0
cpu0_L1I WRITE        ACCESS:          0 HIT:          0 MISS:          0
cpu0_L1I TRANSLATION  ACCESS:          0 HIT:          0 MISS:          0
cpu0_L1I PREFETCH REQUESTED:          0 ISSUED:          0 USEFUL:          0 USELESS:          0
cpu0_L1I AVERAGE MISS LATENCY: 8.654 cycles
cpu0_L2C TOTAL        ACCESS:    1668172 HIT:    1210834 MISS:     457338
cpu0_L2C LOAD         ACCESS:    1317206 HIT:     913466 MISS:     403740
cpu0_L2C RFO          ACCESS:      88564 HIT:      55976 MISS:      32588
cpu0_L2C PREFETCH     ACCESS:          0 HIT:          0 MISS:          0
cpu0_L2C WRITE        ACCESS:     239058 HIT:     237249 MISS:       1809
cpu0_L2C TRANSLATION  ACCESS:      23344 HIT:       4143 MISS:      19201
cpu0_L2C PREFETCH REQUESTED:          0 ISSUED:          0 USEFUL:          0 USELESS:          0
cpu0_L2C AVERAGE MISS LATENCY: 70.73 cycles
cpu0_STLB TOTAL        ACCESS:     505097 HIT:     482308 MISS:      22789
cpu0_STLB LOAD         ACCESS:     505097 HIT:     482308 MISS:      22789
cpu0_STLB RFO          ACCESS:          0 HIT:          0 MISS:          0
cpu0_STLB PREFETCH     ACCESS:          0 HIT:          0 MISS:          0
cpu0_STLB WRITE        ACCESS:          0 HIT:          0 MISS:          0
cpu0_STLB TRANSLATION  ACCESS:          0 HIT:          0 MISS:          0
cpu0_STLB PREFETCH REQUESTED:          0 ISSUED:          0 USEFUL:          0 USELESS:          0
cpu0_STLB AVERAGE MISS LATENCY: 222.5 cycles

DRAM Statistics

Channel 0 RQ ROW_BUFFER_HIT:      22807
  ROW_BUFFER_MISS:      91196
 AVG DBUS CONGESTED CYCLE: 3.861
WQ ROW_BUFFER_HIT: Channel 0 
  ROW_BUFFER_MISS:        355
  FULL:        327
