WARNING: physical memory size is smaller than virtual memory size.

*** ChampSim Multicore Out-of-Order Simulator ***
Warmup Instructions: 50000000
Simulation Instructions: 600000000
Number of CPUs: 1
Page size: 4096

CPU 0 Tage branch predictor
Initialize SIGNATURE TABLE
ST_SET: 1
ST_WAY: 256
ST_TAG_BIT: 16
ST_TAG_MASK: ffff

Initialize PATTERN TABLE
PT_SET: 512
PT_WAY: 4
SIG_DELTA_BIT: 7
C_SIG_BIT: 4
C_DELTA_BIT: 4

Initialize PREFETCH FILTER
FILTER_SET: 1024
Off-chip DRAM Size: 4 GiB Channels: 1 Width: 64-bit Data Race: 3200 MT/s
Heartbeat CPU 0 instructions: 10000001 cycles: 2500318 heartbeat IPC: 3.999 cumulative IPC: 3.999 (Simulation time: 00 hr 04 min 23 sec)
Heartbeat CPU 0 instructions: 20000002 cycles: 5037133 heartbeat IPC: 3.942 cumulative IPC: 3.971 (Simulation time: 00 hr 08 min 48 sec)
Heartbeat CPU 0 instructions: 30000002 cycles: 7537133 heartbeat IPC: 4 cumulative IPC: 3.98 (Simulation time: 00 hr 12 min 49 sec)
Heartbeat CPU 0 instructions: 40000002 cycles: 10037133 heartbeat IPC: 4 cumulative IPC: 3.985 (Simulation time: 00 hr 16 min 52 sec)
Heartbeat CPU 0 instructions: 50000002 cycles: 12537133 heartbeat IPC: 4 cumulative IPC: 3.988 (Simulation time: 00 hr 20 min 52 sec)
Warmup finished CPU 0 instructions: 50000002 cycles: 12537134 cumulative IPC: 3.988 (Simulation time: 00 hr 20 min 52 sec)
Warmup complete CPU 0 instructions: 50000002 cycles: 12537134 cumulative IPC: 3.988 (Simulation time: 00 hr 20 min 52 sec)
Heartbeat CPU 0 instructions: 60000001 cycles: 15555607 heartbeat IPC: 3.313 cumulative IPC: 3.313 (Simulation time: 00 hr 25 min 44 sec)
Heartbeat CPU 0 instructions: 70000004 cycles: 18653519 heartbeat IPC: 3.228 cumulative IPC: 3.27 (Simulation time: 00 hr 30 min 39 sec)
Heartbeat CPU 0 instructions: 80000001 cycles: 21725275 heartbeat IPC: 3.255 cumulative IPC: 3.265 (Simulation time: 00 hr 35 min 32 sec)
Heartbeat CPU 0 instructions: 90000001 cycles: 24698484 heartbeat IPC: 3.363 cumulative IPC: 3.289 (Simulation time: 00 hr 40 min 23 sec)
Heartbeat CPU 0 instructions: 100000000 cycles: 27634996 heartbeat IPC: 3.405 cumulative IPC: 3.312 (Simulation time: 00 hr 45 min 12 sec)
Heartbeat CPU 0 instructions: 110000000 cycles: 30597662 heartbeat IPC: 3.375 cumulative IPC: 3.322 (Simulation time: 00 hr 49 min 59 sec)
Heartbeat CPU 0 instructions: 120000001 cycles: 33592718 heartbeat IPC: 3.339 cumulative IPC: 3.325 (Simulation time: 00 hr 54 min 49 sec)
Heartbeat CPU 0 instructions: 130000001 cycles: 36469100 heartbeat IPC: 3.477 cumulative IPC: 3.343 (Simulation time: 00 hr 59 min 39 sec)
Heartbeat CPU 0 instructions: 140000001 cycles: 39533689 heartbeat IPC: 3.263 cumulative IPC: 3.334 (Simulation time: 01 hr 04 min 30 sec)
Heartbeat CPU 0 instructions: 150000001 cycles: 42575288 heartbeat IPC: 3.288 cumulative IPC: 3.329 (Simulation time: 01 hr 09 min 24 sec)
Heartbeat CPU 0 instructions: 160000004 cycles: 45631028 heartbeat IPC: 3.273 cumulative IPC: 3.324 (Simulation time: 01 hr 14 min 19 sec)
Heartbeat CPU 0 instructions: 170000000 cycles: 51281748 heartbeat IPC: 1.77 cumulative IPC: 3.097 (Simulation time: 01 hr 21 min 01 sec)
Heartbeat CPU 0 instructions: 180000004 cycles: 56187627 heartbeat IPC: 2.038 cumulative IPC: 2.978 (Simulation time: 01 hr 27 min 22 sec)
Heartbeat CPU 0 instructions: 190000001 cycles: 60724923 heartbeat IPC: 2.204 cumulative IPC: 2.905 (Simulation time: 01 hr 33 min 26 sec)
Heartbeat CPU 0 instructions: 200000004 cycles: 63488526 heartbeat IPC: 3.618 cumulative IPC: 2.944 (Simulation time: 01 hr 38 min 07 sec)
Heartbeat CPU 0 instructions: 210000001 cycles: 66299894 heartbeat IPC: 3.557 cumulative IPC: 2.976 (Simulation time: 01 hr 42 min 51 sec)
Heartbeat CPU 0 instructions: 220000000 cycles: 69106534 heartbeat IPC: 3.563 cumulative IPC: 3.005 (Simulation time: 01 hr 47 min 35 sec)
Heartbeat CPU 0 instructions: 230000002 cycles: 71833626 heartbeat IPC: 3.667 cumulative IPC: 3.036 (Simulation time: 01 hr 52 min 14 sec)
Heartbeat CPU 0 instructions: 240000003 cycles: 74678955 heartbeat IPC: 3.515 cumulative IPC: 3.058 (Simulation time: 01 hr 57 min 01 sec)
Heartbeat CPU 0 instructions: 250000000 cycles: 77480805 heartbeat IPC: 3.569 cumulative IPC: 3.08 (Simulation time: 02 hr 01 min 46 sec)
Heartbeat CPU 0 instructions: 260000002 cycles: 80211235 heartbeat IPC: 3.662 cumulative IPC: 3.103 (Simulation time: 02 hr 06 min 26 sec)
Heartbeat CPU 0 instructions: 270000002 cycles: 82964731 heartbeat IPC: 3.632 cumulative IPC: 3.124 (Simulation time: 02 hr 11 min 07 sec)
Heartbeat CPU 0 instructions: 280000002 cycles: 85679143 heartbeat IPC: 3.684 cumulative IPC: 3.145 (Simulation time: 02 hr 15 min 47 sec)
Heartbeat CPU 0 instructions: 290000002 cycles: 88502238 heartbeat IPC: 3.542 cumulative IPC: 3.159 (Simulation time: 02 hr 20 min 31 sec)
Heartbeat CPU 0 instructions: 300000003 cycles: 91188115 heartbeat IPC: 3.723 cumulative IPC: 3.179 (Simulation time: 02 hr 25 min 13 sec)
Heartbeat CPU 0 instructions: 310000001 cycles: 93972559 heartbeat IPC: 3.591 cumulative IPC: 3.193 (Simulation time: 02 hr 29 min 55 sec)
Heartbeat CPU 0 instructions: 320000003 cycles: 96802313 heartbeat IPC: 3.534 cumulative IPC: 3.204 (Simulation time: 02 hr 34 min 39 sec)
Heartbeat CPU 0 instructions: 330000003 cycles: 99518501 heartbeat IPC: 3.682 cumulative IPC: 3.219 (Simulation time: 02 hr 39 min 20 sec)
Heartbeat CPU 0 instructions: 340000000 cycles: 104013427 heartbeat IPC: 2.225 cumulative IPC: 3.17 (Simulation time: 02 hr 45 min 19 sec)
Heartbeat CPU 0 instructions: 350000000 cycles: 109018086 heartbeat IPC: 1.998 cumulative IPC: 3.109 (Simulation time: 02 hr 51 min 45 sec)
Heartbeat CPU 0 instructions: 360000004 cycles: 113841363 heartbeat IPC: 2.073 cumulative IPC: 3.06 (Simulation time: 02 hr 57 min 59 sec)
Heartbeat CPU 0 instructions: 370000000 cycles: 116662354 heartbeat IPC: 3.545 cumulative IPC: 3.073 (Simulation time: 03 hr 02 min 41 sec)
Heartbeat CPU 0 instructions: 380000003 cycles: 119435176 heartbeat IPC: 3.606 cumulative IPC: 3.087 (Simulation time: 03 hr 07 min 25 sec)
Heartbeat CPU 0 instructions: 390000002 cycles: 122311277 heartbeat IPC: 3.477 cumulative IPC: 3.097 (Simulation time: 03 hr 12 min 08 sec)
Heartbeat CPU 0 instructions: 400000004 cycles: 125153740 heartbeat IPC: 3.518 cumulative IPC: 3.108 (Simulation time: 03 hr 16 min 50 sec)
Heartbeat CPU 0 instructions: 410000002 cycles: 127930687 heartbeat IPC: 3.601 cumulative IPC: 3.12 (Simulation time: 03 hr 21 min 30 sec)
Heartbeat CPU 0 instructions: 420000003 cycles: 130796939 heartbeat IPC: 3.489 cumulative IPC: 3.129 (Simulation time: 03 hr 26 min 14 sec)
Heartbeat CPU 0 instructions: 430000001 cycles: 133680605 heartbeat IPC: 3.468 cumulative IPC: 3.137 (Simulation time: 03 hr 31 min 01 sec)
Heartbeat CPU 0 instructions: 440000004 cycles: 136630536 heartbeat IPC: 3.39 cumulative IPC: 3.143 (Simulation time: 03 hr 35 min 47 sec)
Heartbeat CPU 0 instructions: 450000002 cycles: 139380450 heartbeat IPC: 3.636 cumulative IPC: 3.153 (Simulation time: 03 hr 40 min 30 sec)
Heartbeat CPU 0 instructions: 460000000 cycles: 142158488 heartbeat IPC: 3.6 cumulative IPC: 3.163 (Simulation time: 03 hr 45 min 10 sec)
Heartbeat CPU 0 instructions: 470000001 cycles: 144882461 heartbeat IPC: 3.671 cumulative IPC: 3.174 (Simulation time: 03 hr 49 min 49 sec)
Heartbeat CPU 0 instructions: 480000003 cycles: 147781915 heartbeat IPC: 3.449 cumulative IPC: 3.179 (Simulation time: 03 hr 54 min 36 sec)
Heartbeat CPU 0 instructions: 490000004 cycles: 150504635 heartbeat IPC: 3.673 cumulative IPC: 3.189 (Simulation time: 03 hr 59 min 16 sec)
Heartbeat CPU 0 instructions: 500000004 cycles: 153386250 heartbeat IPC: 3.47 cumulative IPC: 3.195 (Simulation time: 04 hr 04 min 01 sec)
Heartbeat CPU 0 instructions: 510000003 cycles: 156245533 heartbeat IPC: 3.497 cumulative IPC: 3.201 (Simulation time: 04 hr 08 min 49 sec)
Heartbeat CPU 0 instructions: 520000001 cycles: 158956319 heartbeat IPC: 3.689 cumulative IPC: 3.21 (Simulation time: 04 hr 13 min 32 sec)
Heartbeat CPU 0 instructions: 530000001 cycles: 161808324 heartbeat IPC: 3.506 cumulative IPC: 3.216 (Simulation time: 04 hr 18 min 15 sec)
Heartbeat CPU 0 instructions: 540000000 cycles: 164613046 heartbeat IPC: 3.565 cumulative IPC: 3.222 (Simulation time: 04 hr 22 min 56 sec)
Heartbeat CPU 0 instructions: 550000001 cycles: 167474772 heartbeat IPC: 3.494 cumulative IPC: 3.227 (Simulation time: 04 hr 27 min 42 sec)
Heartbeat CPU 0 instructions: 560000000 cycles: 170334145 heartbeat IPC: 3.497 cumulative IPC: 3.232 (Simulation time: 04 hr 32 min 26 sec)
Heartbeat CPU 0 instructions: 570000004 cycles: 174001640 heartbeat IPC: 2.727 cumulative IPC: 3.221 (Simulation time: 04 hr 37 min 47 sec)
Heartbeat CPU 0 instructions: 580000003 cycles: 178946939 heartbeat IPC: 2.022 cumulative IPC: 3.185 (Simulation time: 04 hr 44 min 17 sec)
Heartbeat CPU 0 instructions: 590000002 cycles: 184430769 heartbeat IPC: 1.824 cumulative IPC: 3.141 (Simulation time: 04 hr 51 min 15 sec)
Heartbeat CPU 0 instructions: 600000004 cycles: 187320441 heartbeat IPC: 3.461 cumulative IPC: 3.147 (Simulation time: 04 hr 55 min 57 sec)
Heartbeat CPU 0 instructions: 610000002 cycles: 190159605 heartbeat IPC: 3.522 cumulative IPC: 3.153 (Simulation time: 05 hr 00 min 36 sec)
Heartbeat CPU 0 instructions: 620000001 cycles: 192864431 heartbeat IPC: 3.697 cumulative IPC: 3.161 (Simulation time: 05 hr 05 min 27 sec)
Heartbeat CPU 0 instructions: 630000002 cycles: 195724415 heartbeat IPC: 3.497 cumulative IPC: 3.166 (Simulation time: 05 hr 10 min 24 sec)
Heartbeat CPU 0 instructions: 640000004 cycles: 198625006 heartbeat IPC: 3.448 cumulative IPC: 3.171 (Simulation time: 05 hr 15 min 09 sec)
Heartbeat CPU 0 instructions: 650000000 cycles: 201330883 heartbeat IPC: 3.696 cumulative IPC: 3.178 (Simulation time: 05 hr 19 min 47 sec)
Simulation finished CPU 0 instructions: 600000001 cycles: 188793751 cumulative IPC: 3.178 (Simulation time: 05 hr 19 min 47 sec)
Simulation complete CPU 0 instructions: 600000001 cycles: 188793751 cumulative IPC: 3.178 (Simulation time: 05 hr 19 min 47 sec)

ChampSim completed all CPUs

=== Simulation ===
CPU 0 runs traces/400.perlbench-41B.champsimtrace.xz
Region of Interest Statistics

CPU 0 cumulative IPC: 3.178 instructions: 600000001 cycles: 188793751
CPU 0 Branch Prediction Accuracy: 99.19% MPKI: 1.684 Average ROB Occupancy at Mispredict: 100.5
Branch type MPKI
BRANCH_DIRECT_JUMP: 0.0123
BRANCH_INDIRECT: 0.323
BRANCH_CONDITIONAL: 1.14
BRANCH_DIRECT_CALL: 0.0043
BRANCH_INDIRECT_CALL: 0.2
BRANCH_RETURN: 0.00828

LLC TOTAL        ACCESS:     924860 HIT:     779851 MISS:     145009
LLC LOAD         ACCESS:     403370 HIT:     364188 MISS:      39182
LLC RFO          ACCESS:      32511 HIT:      28189 MISS:       4322
LLC PREFETCH     ACCESS:     384389 HIT:     289489 MISS:      94900
LLC WRITE        ACCESS:      85517 HIT:      85497 MISS:         20
LLC TRANSLATION  ACCESS:      19073 HIT:      12488 MISS:       6585
LLC PREFETCH REQUESTED:     384389 ISSUED:     384389 USEFUL:        585 USELESS:         12
LLC AVERAGE MISS LATENCY: 232.8 cycles
cpu0_DTLB TOTAL        ACCESS:  129749307 HIT:  129048029 MISS:     701278
cpu0_DTLB LOAD         ACCESS:  129749307 HIT:  129048029 MISS:     701278
cpu0_DTLB RFO          ACCESS:          0 HIT:          0 MISS:          0
cpu0_DTLB PREFETCH     ACCESS:          0 HIT:          0 MISS:          0
cpu0_DTLB WRITE        ACCESS:          0 HIT:          0 MISS:          0
cpu0_DTLB TRANSLATION  ACCESS:          0 HIT:          0 MISS:          0
cpu0_DTLB PREFETCH REQUESTED:          0 ISSUED:          0 USEFUL:          0 USELESS:          0
cpu0_DTLB AVERAGE MISS LATENCY: 11.65 cycles
cpu0_ITLB TOTAL        ACCESS:    4860740 HIT:    4798640 MISS:      62100
cpu0_ITLB LOAD         ACCESS:    4860740 HIT:    4798640 MISS:      62100
cpu0_ITLB RFO          ACCESS:          0 HIT:          0 MISS:          0
cpu0_ITLB PREFETCH     ACCESS:          0 HIT:          0 MISS:          0
cpu0_ITLB WRITE        ACCESS:          0 HIT:          0 MISS:          0
cpu0_ITLB TRANSLATION  ACCESS:          0 HIT:          0 MISS:          0
cpu0_ITLB PREFETCH REQUESTED:          0 ISSUED:          0 USEFUL:          0 USELESS:          0
cpu0_ITLB AVERAGE MISS LATENCY: 4.582 cycles
cpu0_L1D TOTAL        ACCESS:  174379290 HIT:  172651102 MISS:    1728188
cpu0_L1D LOAD         ACCESS:   91356685 HIT:   90009638 MISS:    1347047
cpu0_L1D RFO          ACCESS:          0 HIT:          0 MISS:          0
cpu0_L1D PREFETCH     ACCESS:          0 HIT:          0 MISS:          0
cpu0_L1D WRITE        ACCESS:   82998143 HIT:   82640397 MISS:     357746
cpu0_L1D TRANSLATION  ACCESS:      24462 HIT:       1067 MISS:      23395
cpu0_L1D PREFETCH REQUESTED:          0 ISSUED:          0 USEFUL:          0 USELESS:          0
cpu0_L1D AVERAGE MISS LATENCY: 26.35 cycles
cpu0_L1I TOTAL        ACCESS:    5640725 HIT:    4836753 MISS:     803972
cpu0_L1I LOAD         ACCESS:    5640725 HIT:    4836753 MISS:     803972
cpu0_L1I RFO          ACCESS:          0 HIT:          0 MISS:          0
cpu0_L1I PREFETCH     ACCESS:          0 HIT:          0 MISS:          0
cpu0_L1I WRITE        ACCESS:          0 HIT:          0 MISS:          0
cpu0_L1I TRANSLATION  ACCESS:          0 HIT:          0 MISS:          0
cpu0_L1I PREFETCH REQUESTED:          0 ISSUED:          0 USEFUL:          0 USELESS:          0
cpu0_L1I AVERAGE MISS LATENCY: 8.189 cycles
cpu0_L2C TOTAL        ACCESS:    1668457 HIT:    1211699 MISS:     456758
cpu0_L2C LOAD         ACCESS:    1315374 HIT:     912003 MISS:     403371
cpu0_L2C RFO          ACCESS:      89513 HIT:      57001 MISS:      32512
cpu0_L2C PREFETCH     ACCESS:          0 HIT:          0 MISS:          0
cpu0_L2C WRITE        ACCESS:     240252 HIT:     238450 MISS:       1802
cpu0_L2C TRANSLATION  ACCESS:      23318 HIT:       4245 MISS:      19073
cpu0_L2C PREFETCH REQUESTED:          0 ISSUED:          0 USEFUL:          0 USELESS:          0
cpu0_L2C AVERAGE MISS LATENCY: 92.99 cycles
cpu0_STLB TOTAL        ACCESS:     507960 HIT:     485173 MISS:      22787
cpu0_STLB LOAD         ACCESS:     507960 HIT:     485173 MISS:      22787
cpu0_STLB RFO          ACCESS:          0 HIT:          0 MISS:          0
cpu0_STLB PREFETCH     ACCESS:          0 HIT:          0 MISS:          0
cpu0_STLB WRITE        ACCESS:          0 HIT:          0 MISS:          0
cpu0_STLB TRANSLATION  ACCESS:          0 HIT:          0 MISS:          0
cpu0_STLB PREFETCH REQUESTED:          0 ISSUED:          0 USEFUL:          0 USELESS:          0
cpu0_STLB AVERAGE MISS LATENCY: 236.1 cycles

DRAM Statistics

Channel 0 RQ ROW_BUFFER_HIT:      22134
  ROW_BUFFER_MISS:      96494
 AVG DBUS CONGESTED CYCLE: 3.887
WQ ROW_BUFFER_HIT: Channel 0 
  ROW_BUFFER_MISS:        786
  FULL:        925
