WARNING: physical memory size is smaller than virtual memory size.

*** ChampSim Multicore Out-of-Order Simulator ***
Warmup Instructions: 50000000
Simulation Instructions: 600000000
Number of CPUs: 1
Page size: 4096

CPU 0 Tage branch predictor
Off-chip DRAM Size: 4 GiB Channels: 1 Width: 64-bit Data Race: 3200 MT/s
Heartbeat CPU 0 instructions: 10000001 cycles: 2500318 heartbeat IPC: 3.999 cumulative IPC: 3.999 (Simulation time: 00 hr 01 min 23 sec)
Heartbeat CPU 0 instructions: 20000002 cycles: 5037121 heartbeat IPC: 3.942 cumulative IPC: 3.971 (Simulation time: 00 hr 02 min 58 sec)
Heartbeat CPU 0 instructions: 30000002 cycles: 7537121 heartbeat IPC: 4 cumulative IPC: 3.98 (Simulation time: 00 hr 04 min 25 sec)
Heartbeat CPU 0 instructions: 40000002 cycles: 10037121 heartbeat IPC: 4 cumulative IPC: 3.985 (Simulation time: 00 hr 05 min 43 sec)
Heartbeat CPU 0 instructions: 50000002 cycles: 12537121 heartbeat IPC: 4 cumulative IPC: 3.988 (Simulation time: 00 hr 06 min 59 sec)
Warmup finished CPU 0 instructions: 50000002 cycles: 12537122 cumulative IPC: 3.988 (Simulation time: 00 hr 06 min 59 sec)
Warmup complete CPU 0 instructions: 50000002 cycles: 12537122 cumulative IPC: 3.988 (Simulation time: 00 hr 06 min 59 sec)
Heartbeat CPU 0 instructions: 60000001 cycles: 15535261 heartbeat IPC: 3.335 cumulative IPC: 3.335 (Simulation time: 00 hr 08 min 31 sec)
Heartbeat CPU 0 instructions: 70000004 cycles: 18612340 heartbeat IPC: 3.25 cumulative IPC: 3.292 (Simulation time: 00 hr 10 min 02 sec)
Heartbeat CPU 0 instructions: 80000001 cycles: 21662469 heartbeat IPC: 3.279 cumulative IPC: 3.288 (Simulation time: 00 hr 11 min 42 sec)
Heartbeat CPU 0 instructions: 90000001 cycles: 24610013 heartbeat IPC: 3.393 cumulative IPC: 3.313 (Simulation time: 00 hr 13 min 16 sec)
Heartbeat CPU 0 instructions: 100000000 cycles: 27521535 heartbeat IPC: 3.435 cumulative IPC: 3.337 (Simulation time: 00 hr 14 min 55 sec)
Heartbeat CPU 0 instructions: 110000000 cycles: 30465233 heartbeat IPC: 3.397 cumulative IPC: 3.347 (Simulation time: 00 hr 16 min 37 sec)
Heartbeat CPU 0 instructions: 120000001 cycles: 33440985 heartbeat IPC: 3.36 cumulative IPC: 3.349 (Simulation time: 00 hr 18 min 20 sec)
Heartbeat CPU 0 instructions: 130000001 cycles: 36298589 heartbeat IPC: 3.499 cumulative IPC: 3.367 (Simulation time: 00 hr 20 min 05 sec)
Heartbeat CPU 0 instructions: 140000001 cycles: 39357366 heartbeat IPC: 3.269 cumulative IPC: 3.356 (Simulation time: 00 hr 21 min 48 sec)
Heartbeat CPU 0 instructions: 150000001 cycles: 42373105 heartbeat IPC: 3.316 cumulative IPC: 3.352 (Simulation time: 00 hr 23 min 30 sec)
Heartbeat CPU 0 instructions: 160000004 cycles: 45395332 heartbeat IPC: 3.309 cumulative IPC: 3.348 (Simulation time: 00 hr 25 min 17 sec)
Heartbeat CPU 0 instructions: 170000000 cycles: 50938526 heartbeat IPC: 1.804 cumulative IPC: 3.125 (Simulation time: 00 hr 26 min 49 sec)
Heartbeat CPU 0 instructions: 180000004 cycles: 56243964 heartbeat IPC: 1.885 cumulative IPC: 2.974 (Simulation time: 00 hr 27 min 52 sec)
Heartbeat CPU 0 instructions: 190000001 cycles: 61393644 heartbeat IPC: 1.942 cumulative IPC: 2.866 (Simulation time: 00 hr 28 min 56 sec)
Heartbeat CPU 0 instructions: 200000004 cycles: 64198241 heartbeat IPC: 3.566 cumulative IPC: 2.904 (Simulation time: 00 hr 29 min 43 sec)
Heartbeat CPU 0 instructions: 210000001 cycles: 67036944 heartbeat IPC: 3.523 cumulative IPC: 2.936 (Simulation time: 00 hr 30 min 31 sec)
Heartbeat CPU 0 instructions: 220000000 cycles: 69858337 heartbeat IPC: 3.544 cumulative IPC: 2.966 (Simulation time: 00 hr 31 min 19 sec)
Heartbeat CPU 0 instructions: 230000002 cycles: 72642130 heartbeat IPC: 3.592 cumulative IPC: 2.995 (Simulation time: 00 hr 32 min 06 sec)
Heartbeat CPU 0 instructions: 240000003 cycles: 75523585 heartbeat IPC: 3.47 cumulative IPC: 3.017 (Simulation time: 00 hr 32 min 54 sec)
Heartbeat CPU 0 instructions: 250000000 cycles: 78374040 heartbeat IPC: 3.508 cumulative IPC: 3.038 (Simulation time: 00 hr 33 min 44 sec)
Heartbeat CPU 0 instructions: 260000002 cycles: 81150008 heartbeat IPC: 3.602 cumulative IPC: 3.061 (Simulation time: 00 hr 34 min 34 sec)
Heartbeat CPU 0 instructions: 270000002 cycles: 83931464 heartbeat IPC: 3.595 cumulative IPC: 3.081 (Simulation time: 00 hr 35 min 19 sec)
Heartbeat CPU 0 instructions: 280000002 cycles: 86686530 heartbeat IPC: 3.63 cumulative IPC: 3.102 (Simulation time: 00 hr 36 min 03 sec)
Heartbeat CPU 0 instructions: 290000002 cycles: 89534136 heartbeat IPC: 3.512 cumulative IPC: 3.117 (Simulation time: 00 hr 36 min 48 sec)
Heartbeat CPU 0 instructions: 300000003 cycles: 92263090 heartbeat IPC: 3.664 cumulative IPC: 3.136 (Simulation time: 00 hr 37 min 33 sec)
Heartbeat CPU 0 instructions: 310000001 cycles: 95088005 heartbeat IPC: 3.54 cumulative IPC: 3.15 (Simulation time: 00 hr 38 min 17 sec)
Heartbeat CPU 0 instructions: 320000003 cycles: 97947725 heartbeat IPC: 3.497 cumulative IPC: 3.161 (Simulation time: 00 hr 39 min 02 sec)
Heartbeat CPU 0 instructions: 330000003 cycles: 100727474 heartbeat IPC: 3.597 cumulative IPC: 3.175 (Simulation time: 00 hr 39 min 47 sec)
Heartbeat CPU 0 instructions: 340000000 cycles: 105595650 heartbeat IPC: 2.054 cumulative IPC: 3.116 (Simulation time: 00 hr 40 min 44 sec)
Heartbeat CPU 0 instructions: 350000000 cycles: 111019443 heartbeat IPC: 1.844 cumulative IPC: 3.046 (Simulation time: 00 hr 41 min 45 sec)
Heartbeat CPU 0 instructions: 360000004 cycles: 116378314 heartbeat IPC: 1.866 cumulative IPC: 2.985 (Simulation time: 00 hr 42 min 47 sec)
Heartbeat CPU 0 instructions: 370000000 cycles: 119230822 heartbeat IPC: 3.506 cumulative IPC: 2.999 (Simulation time: 00 hr 43 min 34 sec)
Heartbeat CPU 0 instructions: 380000003 cycles: 122038823 heartbeat IPC: 3.561 cumulative IPC: 3.014 (Simulation time: 00 hr 44 min 21 sec)
Heartbeat CPU 0 instructions: 390000002 cycles: 124940439 heartbeat IPC: 3.446 cumulative IPC: 3.025 (Simulation time: 00 hr 45 min 10 sec)
Heartbeat CPU 0 instructions: 400000004 cycles: 127799843 heartbeat IPC: 3.497 cumulative IPC: 3.037 (Simulation time: 00 hr 45 min 59 sec)
Heartbeat CPU 0 instructions: 410000002 cycles: 130613535 heartbeat IPC: 3.554 cumulative IPC: 3.049 (Simulation time: 00 hr 46 min 46 sec)
Heartbeat CPU 0 instructions: 420000003 cycles: 133526221 heartbeat IPC: 3.433 cumulative IPC: 3.058 (Simulation time: 00 hr 47 min 33 sec)
Heartbeat CPU 0 instructions: 430000001 cycles: 136442479 heartbeat IPC: 3.429 cumulative IPC: 3.067 (Simulation time: 00 hr 48 min 22 sec)
Heartbeat CPU 0 instructions: 440000004 cycles: 139434850 heartbeat IPC: 3.342 cumulative IPC: 3.073 (Simulation time: 00 hr 49 min 11 sec)
Heartbeat CPU 0 instructions: 450000002 cycles: 142226762 heartbeat IPC: 3.582 cumulative IPC: 3.084 (Simulation time: 00 hr 49 min 58 sec)
Heartbeat CPU 0 instructions: 460000000 cycles: 145037182 heartbeat IPC: 3.558 cumulative IPC: 3.094 (Simulation time: 00 hr 50 min 45 sec)
Heartbeat CPU 0 instructions: 470000001 cycles: 147793969 heartbeat IPC: 3.627 cumulative IPC: 3.105 (Simulation time: 00 hr 51 min 31 sec)
Heartbeat CPU 0 instructions: 480000003 cycles: 150720611 heartbeat IPC: 3.417 cumulative IPC: 3.112 (Simulation time: 00 hr 52 min 18 sec)
Heartbeat CPU 0 instructions: 490000004 cycles: 153477527 heartbeat IPC: 3.627 cumulative IPC: 3.122 (Simulation time: 00 hr 53 min 04 sec)
Heartbeat CPU 0 instructions: 500000004 cycles: 156384900 heartbeat IPC: 3.44 cumulative IPC: 3.128 (Simulation time: 00 hr 53 min 52 sec)
Heartbeat CPU 0 instructions: 510000003 cycles: 159275898 heartbeat IPC: 3.459 cumulative IPC: 3.135 (Simulation time: 00 hr 54 min 40 sec)
Heartbeat CPU 0 instructions: 520000001 cycles: 162032298 heartbeat IPC: 3.628 cumulative IPC: 3.144 (Simulation time: 00 hr 55 min 27 sec)
Heartbeat CPU 0 instructions: 530000001 cycles: 164917693 heartbeat IPC: 3.466 cumulative IPC: 3.15 (Simulation time: 00 hr 56 min 13 sec)
Heartbeat CPU 0 instructions: 540000000 cycles: 167763019 heartbeat IPC: 3.515 cumulative IPC: 3.157 (Simulation time: 00 hr 56 min 59 sec)
Heartbeat CPU 0 instructions: 550000001 cycles: 170658139 heartbeat IPC: 3.454 cumulative IPC: 3.162 (Simulation time: 00 hr 57 min 45 sec)
Heartbeat CPU 0 instructions: 560000000 cycles: 173562736 heartbeat IPC: 3.443 cumulative IPC: 3.167 (Simulation time: 00 hr 58 min 30 sec)
Heartbeat CPU 0 instructions: 570000004 cycles: 177431471 heartbeat IPC: 2.585 cumulative IPC: 3.154 (Simulation time: 00 hr 59 min 22 sec)
Heartbeat CPU 0 instructions: 580000003 cycles: 182993559 heartbeat IPC: 1.798 cumulative IPC: 3.109 (Simulation time: 01 hr 00 min 26 sec)
Heartbeat CPU 0 instructions: 590000002 cycles: 189428048 heartbeat IPC: 1.554 cumulative IPC: 3.053 (Simulation time: 01 hr 01 min 38 sec)
Heartbeat CPU 0 instructions: 600000004 cycles: 192349007 heartbeat IPC: 3.424 cumulative IPC: 3.059 (Simulation time: 01 hr 02 min 26 sec)
Heartbeat CPU 0 instructions: 610000002 cycles: 195214142 heartbeat IPC: 3.49 cumulative IPC: 3.066 (Simulation time: 01 hr 03 min 14 sec)
Heartbeat CPU 0 instructions: 620000001 cycles: 197935720 heartbeat IPC: 3.674 cumulative IPC: 3.074 (Simulation time: 01 hr 04 min 02 sec)
Heartbeat CPU 0 instructions: 630000002 cycles: 200820699 heartbeat IPC: 3.466 cumulative IPC: 3.08 (Simulation time: 01 hr 04 min 52 sec)
Heartbeat CPU 0 instructions: 640000004 cycles: 203736553 heartbeat IPC: 3.43 cumulative IPC: 3.086 (Simulation time: 01 hr 05 min 43 sec)
Heartbeat CPU 0 instructions: 650000000 cycles: 206453597 heartbeat IPC: 3.68 cumulative IPC: 3.094 (Simulation time: 01 hr 06 min 29 sec)
Simulation finished CPU 0 instructions: 600000001 cycles: 193916477 cumulative IPC: 3.094 (Simulation time: 01 hr 06 min 29 sec)
Simulation complete CPU 0 instructions: 600000001 cycles: 193916477 cumulative IPC: 3.094 (Simulation time: 01 hr 06 min 29 sec)

ChampSim completed all CPUs

=== Simulation ===
CPU 0 runs traces/400.perlbench-41B.champsimtrace.xz
Region of Interest Statistics

CPU 0 cumulative IPC: 3.094 instructions: 600000001 cycles: 193916477
CPU 0 Branch Prediction Accuracy: 99.19% MPKI: 1.684 Average ROB Occupancy at Mispredict: 100.8
Branch type MPKI
BRANCH_DIRECT_JUMP: 0.0123
BRANCH_INDIRECT: 0.323
BRANCH_CONDITIONAL: 1.14
BRANCH_DIRECT_CALL: 0.0043
BRANCH_INDIRECT_CALL: 0.2
BRANCH_RETURN: 0.00828

LLC TOTAL        ACCESS:     939635 HIT:     798615 MISS:     141020
LLC LOAD         ACCESS:     401478 HIT:     338286 MISS:      63192
LLC RFO          ACCESS:      32509 HIT:      26501 MISS:       6008
LLC PREFETCH     ACCESS:     401478 HIT:     336999 MISS:      64479
LLC WRITE        ACCESS:      85099 HIT:      85068 MISS:         31
LLC TRANSLATION  ACCESS:      19071 HIT:      11761 MISS:       7310
LLC PREFETCH REQUESTED:     401478 ISSUED:     401478 USEFUL:      23185 USELESS:      16381
LLC AVERAGE MISS LATENCY: 506.9 cycles
cpu0_DTLB TOTAL        ACCESS:  129757255 HIT:  129055477 MISS:     701778
cpu0_DTLB LOAD         ACCESS:  129757255 HIT:  129055477 MISS:     701778
cpu0_DTLB RFO          ACCESS:          0 HIT:          0 MISS:          0
cpu0_DTLB PREFETCH     ACCESS:          0 HIT:          0 MISS:          0
cpu0_DTLB WRITE        ACCESS:          0 HIT:          0 MISS:          0
cpu0_DTLB TRANSLATION  ACCESS:          0 HIT:          0 MISS:          0
cpu0_DTLB PREFETCH REQUESTED:          0 ISSUED:          0 USEFUL:          0 USELESS:          0
cpu0_DTLB AVERAGE MISS LATENCY: 11.33 cycles
cpu0_ITLB TOTAL        ACCESS:    4861706 HIT:    4799524 MISS:      62182
cpu0_ITLB LOAD         ACCESS:    4861706 HIT:    4799524 MISS:      62182
cpu0_ITLB RFO          ACCESS:          0 HIT:          0 MISS:          0
cpu0_ITLB PREFETCH     ACCESS:          0 HIT:          0 MISS:          0
cpu0_ITLB WRITE        ACCESS:          0 HIT:          0 MISS:          0
cpu0_ITLB TRANSLATION  ACCESS:          0 HIT:          0 MISS:          0
cpu0_ITLB PREFETCH REQUESTED:          0 ISSUED:          0 USEFUL:          0 USELESS:          0
cpu0_ITLB AVERAGE MISS LATENCY: 4.664 cycles
cpu0_L1D TOTAL        ACCESS:  174380769 HIT:  172636191 MISS:    1744578
cpu0_L1D LOAD         ACCESS:   91356860 HIT:   89998135 MISS:    1358725
cpu0_L1D RFO          ACCESS:          0 HIT:          0 MISS:          0
cpu0_L1D PREFETCH     ACCESS:          0 HIT:          0 MISS:          0
cpu0_L1D WRITE        ACCESS:   82999442 HIT:   82636985 MISS:     362457
cpu0_L1D TRANSLATION  ACCESS:      24467 HIT:       1071 MISS:      23396
cpu0_L1D PREFETCH REQUESTED:          0 ISSUED:          0 USEFUL:          0 USELESS:          0
cpu0_L1D AVERAGE MISS LATENCY: 32.36 cycles
cpu0_L1I TOTAL        ACCESS:    5641702 HIT:    4837874 MISS:     803828
cpu0_L1I LOAD         ACCESS:    5641702 HIT:    4837874 MISS:     803828
cpu0_L1I RFO          ACCESS:          0 HIT:          0 MISS:          0
cpu0_L1I PREFETCH     ACCESS:          0 HIT:          0 MISS:          0
cpu0_L1I WRITE        ACCESS:          0 HIT:          0 MISS:          0
cpu0_L1I TRANSLATION  ACCESS:          0 HIT:          0 MISS:          0
cpu0_L1I PREFETCH REQUESTED:          0 ISSUED:          0 USEFUL:          0 USELESS:          0
cpu0_L1I AVERAGE MISS LATENCY: 8.307 cycles
cpu0_L2C TOTAL        ACCESS:    1668310 HIT:    1213437 MISS:     454873
cpu0_L2C LOAD         ACCESS:    1315340 HIT:     913862 MISS:     401478
cpu0_L2C RFO          ACCESS:      89537 HIT:      57028 MISS:      32509
cpu0_L2C PREFETCH     ACCESS:          0 HIT:          0 MISS:          0
cpu0_L2C WRITE        ACCESS:     240115 HIT:     238300 MISS:       1815
cpu0_L2C TRANSLATION  ACCESS:      23318 HIT:       4247 MISS:      19071
cpu0_L2C PREFETCH REQUESTED:          0 ISSUED:          0 USEFUL:          0 USELESS:          0
cpu0_L2C AVERAGE MISS LATENCY: 118.8 cycles
cpu0_STLB TOTAL        ACCESS:     508149 HIT:     485361 MISS:      22788
cpu0_STLB LOAD         ACCESS:     508149 HIT:     485361 MISS:      22788
cpu0_STLB RFO          ACCESS:          0 HIT:          0 MISS:          0
cpu0_STLB PREFETCH     ACCESS:          0 HIT:          0 MISS:          0
cpu0_STLB WRITE        ACCESS:          0 HIT:          0 MISS:          0
cpu0_STLB TRANSLATION  ACCESS:          0 HIT:          0 MISS:          0
cpu0_STLB PREFETCH REQUESTED:          0 ISSUED:          0 USEFUL:          0 USELESS:          0
cpu0_STLB AVERAGE MISS LATENCY: 227.2 cycles

DRAM Statistics

Channel 0 RQ ROW_BUFFER_HIT:      26210
  ROW_BUFFER_MISS:      88432
 AVG DBUS CONGESTED CYCLE: 3.836
WQ ROW_BUFFER_HIT: Channel 0 
  ROW_BUFFER_MISS:       2858
  FULL:       5338
