WARNING: physical memory size is smaller than virtual memory size.

*** ChampSim Multicore Out-of-Order Simulator ***
Warmup Instructions: 50000000
Simulation Instructions: 600000000
Number of CPUs: 1
Page size: 4096

Off-chip DRAM Size: 4 GiB Channels: 1 Width: 64-bit Data Race: 3200 MT/s
Heartbeat CPU 0 instructions: 10000000 cycles: 2500061 heartbeat IPC: 4 cumulative IPC: 4 (Simulation time: 00 hr 00 min 35 sec)
Heartbeat CPU 0 instructions: 20000000 cycles: 5000061 heartbeat IPC: 4 cumulative IPC: 4 (Simulation time: 00 hr 01 min 09 sec)
Heartbeat CPU 0 instructions: 30000000 cycles: 7500061 heartbeat IPC: 4 cumulative IPC: 4 (Simulation time: 00 hr 01 min 43 sec)
Heartbeat CPU 0 instructions: 40000000 cycles: 10000061 heartbeat IPC: 4 cumulative IPC: 4 (Simulation time: 00 hr 02 min 17 sec)
Heartbeat CPU 0 instructions: 50000000 cycles: 12500061 heartbeat IPC: 4 cumulative IPC: 4 (Simulation time: 00 hr 02 min 50 sec)
Warmup finished CPU 0 instructions: 50000000 cycles: 12500062 cumulative IPC: 4 (Simulation time: 00 hr 02 min 50 sec)
Warmup complete CPU 0 instructions: 50000000 cycles: 12500062 cumulative IPC: 4 (Simulation time: 00 hr 02 min 50 sec)
Heartbeat CPU 0 instructions: 60000002 cycles: 16897168 heartbeat IPC: 2.274 cumulative IPC: 2.274 (Simulation time: 00 hr 03 min 39 sec)
Heartbeat CPU 0 instructions: 70000003 cycles: 21874323 heartbeat IPC: 2.009 cumulative IPC: 2.134 (Simulation time: 00 hr 04 min 30 sec)
Heartbeat CPU 0 instructions: 80000001 cycles: 27217652 heartbeat IPC: 1.871 cumulative IPC: 2.038 (Simulation time: 00 hr 05 min 18 sec)
Heartbeat CPU 0 instructions: 90000000 cycles: 31512174 heartbeat IPC: 2.329 cumulative IPC: 2.104 (Simulation time: 00 hr 06 min 03 sec)
Heartbeat CPU 0 instructions: 100000003 cycles: 36360283 heartbeat IPC: 2.063 cumulative IPC: 2.096 (Simulation time: 00 hr 06 min 50 sec)
Heartbeat CPU 0 instructions: 110000002 cycles: 41223823 heartbeat IPC: 2.056 cumulative IPC: 2.089 (Simulation time: 00 hr 07 min 34 sec)
Heartbeat CPU 0 instructions: 120000001 cycles: 46216185 heartbeat IPC: 2.003 cumulative IPC: 2.076 (Simulation time: 00 hr 08 min 18 sec)
Heartbeat CPU 0 instructions: 130000003 cycles: 50774631 heartbeat IPC: 2.194 cumulative IPC: 2.09 (Simulation time: 00 hr 09 min 01 sec)
Heartbeat CPU 0 instructions: 140000002 cycles: 55657500 heartbeat IPC: 2.048 cumulative IPC: 2.085 (Simulation time: 00 hr 09 min 45 sec)
Heartbeat CPU 0 instructions: 150000001 cycles: 60315882 heartbeat IPC: 2.147 cumulative IPC: 2.091 (Simulation time: 00 hr 10 min 27 sec)
Heartbeat CPU 0 instructions: 160000000 cycles: 64944965 heartbeat IPC: 2.16 cumulative IPC: 2.097 (Simulation time: 00 hr 11 min 10 sec)
Heartbeat CPU 0 instructions: 170000000 cycles: 70269944 heartbeat IPC: 1.878 cumulative IPC: 2.077 (Simulation time: 00 hr 11 min 55 sec)
Heartbeat CPU 0 instructions: 180000001 cycles: 75985244 heartbeat IPC: 1.75 cumulative IPC: 2.048 (Simulation time: 00 hr 12 min 42 sec)
Heartbeat CPU 0 instructions: 190000002 cycles: 80446549 heartbeat IPC: 2.241 cumulative IPC: 2.06 (Simulation time: 00 hr 13 min 24 sec)
Heartbeat CPU 0 instructions: 200000002 cycles: 85337187 heartbeat IPC: 2.045 cumulative IPC: 2.059 (Simulation time: 00 hr 14 min 08 sec)
Heartbeat CPU 0 instructions: 210000000 cycles: 90334775 heartbeat IPC: 2.001 cumulative IPC: 2.056 (Simulation time: 00 hr 14 min 51 sec)
Heartbeat CPU 0 instructions: 220000001 cycles: 95256096 heartbeat IPC: 2.032 cumulative IPC: 2.054 (Simulation time: 00 hr 15 min 34 sec)
Heartbeat CPU 0 instructions: 230000002 cycles: 100493367 heartbeat IPC: 1.909 cumulative IPC: 2.046 (Simulation time: 00 hr 16 min 19 sec)
Heartbeat CPU 0 instructions: 240000001 cycles: 105450230 heartbeat IPC: 2.017 cumulative IPC: 2.044 (Simulation time: 00 hr 17 min 03 sec)
Heartbeat CPU 0 instructions: 250000003 cycles: 110619443 heartbeat IPC: 1.935 cumulative IPC: 2.038 (Simulation time: 00 hr 17 min 47 sec)
Heartbeat CPU 0 instructions: 260000001 cycles: 115478521 heartbeat IPC: 2.058 cumulative IPC: 2.039 (Simulation time: 00 hr 18 min 31 sec)
Heartbeat CPU 0 instructions: 270000000 cycles: 122730418 heartbeat IPC: 1.379 cumulative IPC: 1.996 (Simulation time: 00 hr 19 min 27 sec)
Heartbeat CPU 0 instructions: 280000000 cycles: 132785131 heartbeat IPC: 0.9946 cumulative IPC: 1.912 (Simulation time: 00 hr 20 min 40 sec)
Heartbeat CPU 0 instructions: 290000001 cycles: 141450337 heartbeat IPC: 1.154 cumulative IPC: 1.861 (Simulation time: 00 hr 21 min 45 sec)
Heartbeat CPU 0 instructions: 300000003 cycles: 148703437 heartbeat IPC: 1.379 cumulative IPC: 1.835 (Simulation time: 00 hr 22 min 45 sec)
Heartbeat CPU 0 instructions: 310000004 cycles: 158627892 heartbeat IPC: 1.008 cumulative IPC: 1.779 (Simulation time: 00 hr 23 min 57 sec)
Heartbeat CPU 0 instructions: 320000004 cycles: 164161077 heartbeat IPC: 1.807 cumulative IPC: 1.78 (Simulation time: 00 hr 24 min 46 sec)
Heartbeat CPU 0 instructions: 330000000 cycles: 169363429 heartbeat IPC: 1.922 cumulative IPC: 1.785 (Simulation time: 00 hr 25 min 32 sec)
Heartbeat CPU 0 instructions: 340000001 cycles: 174093745 heartbeat IPC: 2.114 cumulative IPC: 1.795 (Simulation time: 00 hr 26 min 16 sec)
Heartbeat CPU 0 instructions: 350000000 cycles: 179016683 heartbeat IPC: 2.031 cumulative IPC: 1.802 (Simulation time: 00 hr 27 min 01 sec)
Heartbeat CPU 0 instructions: 360000003 cycles: 183739382 heartbeat IPC: 2.117 cumulative IPC: 1.81 (Simulation time: 00 hr 27 min 45 sec)
Heartbeat CPU 0 instructions: 370000001 cycles: 188481814 heartbeat IPC: 2.109 cumulative IPC: 1.818 (Simulation time: 00 hr 28 min 29 sec)
Heartbeat CPU 0 instructions: 380000004 cycles: 193508289 heartbeat IPC: 1.989 cumulative IPC: 1.823 (Simulation time: 00 hr 29 min 14 sec)
Heartbeat CPU 0 instructions: 390000002 cycles: 198493580 heartbeat IPC: 2.006 cumulative IPC: 1.828 (Simulation time: 00 hr 29 min 58 sec)
Heartbeat CPU 0 instructions: 400000000 cycles: 203565702 heartbeat IPC: 1.972 cumulative IPC: 1.832 (Simulation time: 00 hr 30 min 43 sec)
Heartbeat CPU 0 instructions: 410000000 cycles: 209818194 heartbeat IPC: 1.599 cumulative IPC: 1.824 (Simulation time: 00 hr 31 min 35 sec)
Heartbeat CPU 0 instructions: 420000001 cycles: 217651624 heartbeat IPC: 1.277 cumulative IPC: 1.804 (Simulation time: 00 hr 32 min 37 sec)
Heartbeat CPU 0 instructions: 430000000 cycles: 224219856 heartbeat IPC: 1.522 cumulative IPC: 1.795 (Simulation time: 00 hr 33 min 35 sec)
Heartbeat CPU 0 instructions: 440000002 cycles: 230728888 heartbeat IPC: 1.536 cumulative IPC: 1.787 (Simulation time: 00 hr 34 min 31 sec)
Heartbeat CPU 0 instructions: 450000001 cycles: 237146895 heartbeat IPC: 1.558 cumulative IPC: 1.781 (Simulation time: 00 hr 35 min 26 sec)
Heartbeat CPU 0 instructions: 460000002 cycles: 245172191 heartbeat IPC: 1.246 cumulative IPC: 1.762 (Simulation time: 00 hr 36 min 28 sec)
Heartbeat CPU 0 instructions: 470000000 cycles: 252514636 heartbeat IPC: 1.362 cumulative IPC: 1.75 (Simulation time: 00 hr 37 min 27 sec)
Heartbeat CPU 0 instructions: 480000000 cycles: 257529169 heartbeat IPC: 1.994 cumulative IPC: 1.755 (Simulation time: 00 hr 38 min 12 sec)
Heartbeat CPU 0 instructions: 490000001 cycles: 262520813 heartbeat IPC: 2.003 cumulative IPC: 1.76 (Simulation time: 00 hr 38 min 56 sec)
Heartbeat CPU 0 instructions: 500000002 cycles: 267474736 heartbeat IPC: 2.019 cumulative IPC: 1.765 (Simulation time: 00 hr 39 min 41 sec)
Heartbeat CPU 0 instructions: 510000000 cycles: 272522713 heartbeat IPC: 1.981 cumulative IPC: 1.769 (Simulation time: 00 hr 40 min 27 sec)
Heartbeat CPU 0 instructions: 520000000 cycles: 277649190 heartbeat IPC: 1.951 cumulative IPC: 1.773 (Simulation time: 00 hr 41 min 11 sec)
Heartbeat CPU 0 instructions: 530000001 cycles: 285186621 heartbeat IPC: 1.327 cumulative IPC: 1.76 (Simulation time: 00 hr 42 min 10 sec)
Heartbeat CPU 0 instructions: 540000000 cycles: 292463559 heartbeat IPC: 1.374 cumulative IPC: 1.75 (Simulation time: 00 hr 43 min 08 sec)
Heartbeat CPU 0 instructions: 550000002 cycles: 300284142 heartbeat IPC: 1.279 cumulative IPC: 1.737 (Simulation time: 00 hr 44 min 07 sec)
Heartbeat CPU 0 instructions: 560000004 cycles: 304710576 heartbeat IPC: 2.259 cumulative IPC: 1.745 (Simulation time: 00 hr 44 min 47 sec)
Heartbeat CPU 0 instructions: 570000001 cycles: 309068384 heartbeat IPC: 2.295 cumulative IPC: 1.753 (Simulation time: 00 hr 45 min 27 sec)
Heartbeat CPU 0 instructions: 580000003 cycles: 313210880 heartbeat IPC: 2.414 cumulative IPC: 1.762 (Simulation time: 00 hr 46 min 04 sec)
Heartbeat CPU 0 instructions: 590000001 cycles: 318018579 heartbeat IPC: 2.08 cumulative IPC: 1.767 (Simulation time: 00 hr 46 min 41 sec)
Heartbeat CPU 0 instructions: 600000003 cycles: 322611745 heartbeat IPC: 2.177 cumulative IPC: 1.774 (Simulation time: 00 hr 47 min 20 sec)
Heartbeat CPU 0 instructions: 610000001 cycles: 327408447 heartbeat IPC: 2.085 cumulative IPC: 1.778 (Simulation time: 00 hr 47 min 57 sec)
Heartbeat CPU 0 instructions: 620000000 cycles: 332426095 heartbeat IPC: 1.993 cumulative IPC: 1.782 (Simulation time: 00 hr 48 min 28 sec)
Heartbeat CPU 0 instructions: 630000002 cycles: 336633643 heartbeat IPC: 2.377 cumulative IPC: 1.789 (Simulation time: 00 hr 48 min 54 sec)
Heartbeat CPU 0 instructions: 640000004 cycles: 341906347 heartbeat IPC: 1.897 cumulative IPC: 1.791 (Simulation time: 00 hr 49 min 19 sec)
Heartbeat CPU 0 instructions: 650000001 cycles: 346648271 heartbeat IPC: 2.109 cumulative IPC: 1.796 (Simulation time: 00 hr 49 min 41 sec)
Simulation finished CPU 0 instructions: 600000001 cycles: 334148210 cumulative IPC: 1.796 (Simulation time: 00 hr 49 min 41 sec)
Simulation complete CPU 0 instructions: 600000001 cycles: 334148210 cumulative IPC: 1.796 (Simulation time: 00 hr 49 min 41 sec)

ChampSim completed all CPUs

=== Simulation ===
CPU 0 runs traces/400.perlbench-50B.champsimtrace.xz
Region of Interest Statistics

CPU 0 cumulative IPC: 1.796 instructions: 600000001 cycles: 334148210
CPU 0 Branch Prediction Accuracy: 93.83% MPKI: 12.71 Average ROB Occupancy at Mispredict: 29.17
Branch type MPKI
BRANCH_DIRECT_JUMP: 0.0176
BRANCH_INDIRECT: 0.38
BRANCH_CONDITIONAL: 11.9
BRANCH_DIRECT_CALL: 0.0067
BRANCH_INDIRECT_CALL: 0.431
BRANCH_RETURN: 0.0161

LLC TOTAL        ACCESS:    1371147 HIT:    1156897 MISS:     214250
LLC LOAD         ACCESS:     586388 HIT:     490241 MISS:      96147
LLC RFO          ACCESS:      48063 HIT:      38064 MISS:       9999
LLC PREFETCH     ACCESS:     586388 HIT:     487989 MISS:      98399
LLC WRITE        ACCESS:     128199 HIT:     127945 MISS:        254
LLC TRANSLATION  ACCESS:      22109 HIT:      12658 MISS:       9451
LLC PREFETCH REQUESTED:     586388 ISSUED:     586388 USEFUL:      33908 USELESS:       6739
LLC AVERAGE MISS LATENCY: 459.1 cycles
cpu0_DTLB TOTAL        ACCESS:  156793216 HIT:  155491983 MISS:    1301233
cpu0_DTLB LOAD         ACCESS:  156793216 HIT:  155491983 MISS:    1301233
cpu0_DTLB RFO          ACCESS:          0 HIT:          0 MISS:          0
cpu0_DTLB PREFETCH     ACCESS:          0 HIT:          0 MISS:          0
cpu0_DTLB WRITE        ACCESS:          0 HIT:          0 MISS:          0
cpu0_DTLB TRANSLATION  ACCESS:          0 HIT:          0 MISS:          0
cpu0_DTLB PREFETCH REQUESTED:          0 ISSUED:          0 USEFUL:          0 USELESS:          0
cpu0_DTLB AVERAGE MISS LATENCY: 10.33 cycles
cpu0_ITLB TOTAL        ACCESS:    8931886 HIT:    8733287 MISS:     198599
cpu0_ITLB LOAD         ACCESS:    8931886 HIT:    8733287 MISS:     198599
cpu0_ITLB RFO          ACCESS:          0 HIT:          0 MISS:          0
cpu0_ITLB PREFETCH     ACCESS:          0 HIT:          0 MISS:          0
cpu0_ITLB WRITE        ACCESS:          0 HIT:          0 MISS:          0
cpu0_ITLB TRANSLATION  ACCESS:          0 HIT:          0 MISS:          0
cpu0_ITLB PREFETCH REQUESTED:          0 ISSUED:          0 USEFUL:          0 USELESS:          0
cpu0_ITLB AVERAGE MISS LATENCY: 2.731 cycles
cpu0_L1D TOTAL        ACCESS:  203655523 HIT:  200013757 MISS:    3641766
cpu0_L1D LOAD         ACCESS:  117978061 HIT:  114979275 MISS:    2998786
cpu0_L1D RFO          ACCESS:          0 HIT:          0 MISS:          0
cpu0_L1D PREFETCH     ACCESS:          0 HIT:          0 MISS:          0
cpu0_L1D WRITE        ACCESS:   85648918 HIT:   85033072 MISS:     615846
cpu0_L1D TRANSLATION  ACCESS:      28544 HIT:       1410 MISS:      27134
cpu0_L1D PREFETCH REQUESTED:          0 ISSUED:          0 USEFUL:          0 USELESS:          0
cpu0_L1D AVERAGE MISS LATENCY: 22.55 cycles
cpu0_L1I TOTAL        ACCESS:   10370732 HIT:    8573572 MISS:    1797160
cpu0_L1I LOAD         ACCESS:   10370732 HIT:    8573572 MISS:    1797160
cpu0_L1I RFO          ACCESS:          0 HIT:          0 MISS:          0
cpu0_L1I PREFETCH     ACCESS:          0 HIT:          0 MISS:          0
cpu0_L1I WRITE        ACCESS:          0 HIT:          0 MISS:          0
cpu0_L1I TRANSLATION  ACCESS:          0 HIT:          0 MISS:          0
cpu0_L1I PREFETCH REQUESTED:          0 ISSUED:          0 USEFUL:          0 USELESS:          0
cpu0_L1I AVERAGE MISS LATENCY: 8.962 cycles
cpu0_L2C TOTAL        ACCESS:    3837213 HIT:    3177267 MISS:     659946
cpu0_L2C LOAD         ACCESS:    3106464 HIT:    2520076 MISS:     586388
cpu0_L2C RFO          ACCESS:     191788 HIT:     143725 MISS:      48063
cpu0_L2C PREFETCH     ACCESS:          0 HIT:          0 MISS:          0
cpu0_L2C WRITE        ACCESS:     511905 HIT:     508519 MISS:       3386
cpu0_L2C TRANSLATION  ACCESS:      27056 HIT:       4947 MISS:      22109
cpu0_L2C PREFETCH REQUESTED:          0 ISSUED:          0 USEFUL:          0 USELESS:          0
cpu0_L2C AVERAGE MISS LATENCY: 106.9 cycles
cpu0_STLB TOTAL        ACCESS:    1009173 HIT:     982479 MISS:      26694
cpu0_STLB LOAD         ACCESS:    1009173 HIT:     982479 MISS:      26694
cpu0_STLB RFO          ACCESS:          0 HIT:          0 MISS:          0
cpu0_STLB PREFETCH     ACCESS:          0 HIT:          0 MISS:          0
cpu0_STLB WRITE        ACCESS:          0 HIT:          0 MISS:          0
cpu0_STLB TRANSLATION  ACCESS:          0 HIT:          0 MISS:          0
cpu0_STLB PREFETCH REQUESTED:          0 ISSUED:          0 USEFUL:          0 USELESS:          0
cpu0_STLB AVERAGE MISS LATENCY: 276.6 cycles

DRAM Statistics

Channel 0 RQ ROW_BUFFER_HIT:      53721
  ROW_BUFFER_MISS:     129485
 AVG DBUS CONGESTED CYCLE: 3.798
WQ ROW_BUFFER_HIT: Channel 0 
  ROW_BUFFER_MISS:       2956
  FULL:       3873
