WARNING: physical memory size is smaller than virtual memory size.

*** ChampSim Multicore Out-of-Order Simulator ***
Warmup Instructions: 50000000
Simulation Instructions: 600000000
Number of CPUs: 1
Page size: 4096

Off-chip DRAM Size: 4 GiB Channels: 1 Width: 64-bit Data Race: 3200 MT/s
Heartbeat CPU 0 instructions: 10000001 cycles: 2500318 heartbeat IPC: 3.999 cumulative IPC: 3.999 (Simulation time: 00 hr 03 min 36 sec)
Heartbeat CPU 0 instructions: 20000002 cycles: 5037114 heartbeat IPC: 3.942 cumulative IPC: 3.971 (Simulation time: 00 hr 07 min 13 sec)
Heartbeat CPU 0 instructions: 30000002 cycles: 7537114 heartbeat IPC: 4 cumulative IPC: 3.98 (Simulation time: 00 hr 10 min 30 sec)
Heartbeat CPU 0 instructions: 40000002 cycles: 10037114 heartbeat IPC: 4 cumulative IPC: 3.985 (Simulation time: 00 hr 13 min 48 sec)
Heartbeat CPU 0 instructions: 50000002 cycles: 12537114 heartbeat IPC: 4 cumulative IPC: 3.988 (Simulation time: 00 hr 17 min 07 sec)
Warmup finished CPU 0 instructions: 50000002 cycles: 12537115 cumulative IPC: 3.988 (Simulation time: 00 hr 17 min 07 sec)
Warmup complete CPU 0 instructions: 50000002 cycles: 12537115 cumulative IPC: 3.988 (Simulation time: 00 hr 17 min 07 sec)
Heartbeat CPU 0 instructions: 60000000 cycles: 17680097 heartbeat IPC: 1.944 cumulative IPC: 1.944 (Simulation time: 00 hr 22 min 17 sec)
Heartbeat CPU 0 instructions: 70000002 cycles: 22550050 heartbeat IPC: 2.053 cumulative IPC: 1.997 (Simulation time: 00 hr 27 min 19 sec)
Heartbeat CPU 0 instructions: 80000001 cycles: 27884961 heartbeat IPC: 1.874 cumulative IPC: 1.955 (Simulation time: 00 hr 32 min 33 sec)
Heartbeat CPU 0 instructions: 90000001 cycles: 32732035 heartbeat IPC: 2.063 cumulative IPC: 1.981 (Simulation time: 00 hr 37 min 36 sec)
Heartbeat CPU 0 instructions: 100000000 cycles: 37819031 heartbeat IPC: 1.966 cumulative IPC: 1.978 (Simulation time: 00 hr 42 min 47 sec)
Heartbeat CPU 0 instructions: 110000000 cycles: 42681435 heartbeat IPC: 2.057 cumulative IPC: 1.99 (Simulation time: 00 hr 47 min 46 sec)
Heartbeat CPU 0 instructions: 120000001 cycles: 47854285 heartbeat IPC: 1.933 cumulative IPC: 1.982 (Simulation time: 00 hr 52 min 58 sec)
Heartbeat CPU 0 instructions: 130000001 cycles: 52984934 heartbeat IPC: 1.949 cumulative IPC: 1.978 (Simulation time: 00 hr 58 min 09 sec)
Heartbeat CPU 0 instructions: 140000001 cycles: 58267836 heartbeat IPC: 1.893 cumulative IPC: 1.968 (Simulation time: 01 hr 03 min 26 sec)
Heartbeat CPU 0 instructions: 150000001 cycles: 63559207 heartbeat IPC: 1.89 cumulative IPC: 1.96 (Simulation time: 01 hr 08 min 43 sec)
Heartbeat CPU 0 instructions: 160000004 cycles: 68737376 heartbeat IPC: 1.931 cumulative IPC: 1.957 (Simulation time: 01 hr 13 min 54 sec)
Heartbeat CPU 0 instructions: 170000000 cycles: 76696987 heartbeat IPC: 1.256 cumulative IPC: 1.87 (Simulation time: 01 hr 20 min 58 sec)
Heartbeat CPU 0 instructions: 180000004 cycles: 83948953 heartbeat IPC: 1.379 cumulative IPC: 1.82 (Simulation time: 01 hr 27 min 50 sec)
Heartbeat CPU 0 instructions: 190000001 cycles: 91072721 heartbeat IPC: 1.404 cumulative IPC: 1.783 (Simulation time: 01 hr 34 min 29 sec)
Heartbeat CPU 0 instructions: 200000003 cycles: 95617587 heartbeat IPC: 2.2 cumulative IPC: 1.805 (Simulation time: 01 hr 39 min 22 sec)
Heartbeat CPU 0 instructions: 210000001 cycles: 100364247 heartbeat IPC: 2.107 cumulative IPC: 1.822 (Simulation time: 01 hr 44 min 22 sec)
Heartbeat CPU 0 instructions: 220000000 cycles: 105093801 heartbeat IPC: 2.114 cumulative IPC: 1.837 (Simulation time: 01 hr 49 min 20 sec)
Heartbeat CPU 0 instructions: 230000002 cycles: 110056943 heartbeat IPC: 2.015 cumulative IPC: 1.846 (Simulation time: 01 hr 54 min 20 sec)
Heartbeat CPU 0 instructions: 240000000 cycles: 114697540 heartbeat IPC: 2.155 cumulative IPC: 1.86 (Simulation time: 01 hr 59 min 19 sec)
Heartbeat CPU 0 instructions: 250000000 cycles: 119592133 heartbeat IPC: 2.043 cumulative IPC: 1.868 (Simulation time: 02 hr 04 min 21 sec)
Heartbeat CPU 0 instructions: 260000000 cycles: 124350026 heartbeat IPC: 2.102 cumulative IPC: 1.878 (Simulation time: 02 hr 09 min 21 sec)
Heartbeat CPU 0 instructions: 270000002 cycles: 129051627 heartbeat IPC: 2.127 cumulative IPC: 1.888 (Simulation time: 02 hr 14 min 18 sec)
Heartbeat CPU 0 instructions: 280000002 cycles: 133763292 heartbeat IPC: 2.122 cumulative IPC: 1.897 (Simulation time: 02 hr 19 min 15 sec)
Heartbeat CPU 0 instructions: 290000001 cycles: 138964626 heartbeat IPC: 1.923 cumulative IPC: 1.898 (Simulation time: 02 hr 24 min 29 sec)
Heartbeat CPU 0 instructions: 300000003 cycles: 143777103 heartbeat IPC: 2.078 cumulative IPC: 1.905 (Simulation time: 02 hr 29 min 31 sec)
Heartbeat CPU 0 instructions: 310000001 cycles: 148771935 heartbeat IPC: 2.002 cumulative IPC: 1.908 (Simulation time: 02 hr 34 min 38 sec)
Heartbeat CPU 0 instructions: 320000003 cycles: 153762282 heartbeat IPC: 2.004 cumulative IPC: 1.912 (Simulation time: 02 hr 39 min 42 sec)
Heartbeat CPU 0 instructions: 330000003 cycles: 158742231 heartbeat IPC: 2.008 cumulative IPC: 1.915 (Simulation time: 02 hr 44 min 43 sec)
Heartbeat CPU 0 instructions: 340000000 cycles: 165861459 heartbeat IPC: 1.405 cumulative IPC: 1.891 (Simulation time: 02 hr 51 min 25 sec)
Heartbeat CPU 0 instructions: 350000000 cycles: 173342273 heartbeat IPC: 1.337 cumulative IPC: 1.866 (Simulation time: 02 hr 58 min 22 sec)
Heartbeat CPU 0 instructions: 360000004 cycles: 180620416 heartbeat IPC: 1.374 cumulative IPC: 1.844 (Simulation time: 03 hr 05 min 10 sec)
Heartbeat CPU 0 instructions: 370000000 cycles: 184866620 heartbeat IPC: 2.355 cumulative IPC: 1.857 (Simulation time: 03 hr 09 min 50 sec)
Heartbeat CPU 0 instructions: 380000001 cycles: 189632307 heartbeat IPC: 2.098 cumulative IPC: 1.863 (Simulation time: 03 hr 14 min 52 sec)
Heartbeat CPU 0 instructions: 390000002 cycles: 194348506 heartbeat IPC: 2.12 cumulative IPC: 1.87 (Simulation time: 03 hr 19 min 51 sec)
Heartbeat CPU 0 instructions: 400000004 cycles: 199217025 heartbeat IPC: 2.054 cumulative IPC: 1.875 (Simulation time: 03 hr 24 min 51 sec)
Heartbeat CPU 0 instructions: 410000000 cycles: 203760324 heartbeat IPC: 2.201 cumulative IPC: 1.883 (Simulation time: 03 hr 29 min 41 sec)
Heartbeat CPU 0 instructions: 420000000 cycles: 208606376 heartbeat IPC: 2.064 cumulative IPC: 1.887 (Simulation time: 03 hr 34 min 39 sec)
Heartbeat CPU 0 instructions: 430000001 cycles: 212938439 heartbeat IPC: 2.308 cumulative IPC: 1.896 (Simulation time: 03 hr 39 min 30 sec)
Heartbeat CPU 0 instructions: 440000000 cycles: 218084101 heartbeat IPC: 1.943 cumulative IPC: 1.897 (Simulation time: 03 hr 44 min 40 sec)
Heartbeat CPU 0 instructions: 450000002 cycles: 222558945 heartbeat IPC: 2.235 cumulative IPC: 1.905 (Simulation time: 03 hr 49 min 31 sec)
Heartbeat CPU 0 instructions: 460000000 cycles: 227184675 heartbeat IPC: 2.162 cumulative IPC: 1.91 (Simulation time: 03 hr 54 min 30 sec)
Heartbeat CPU 0 instructions: 470000000 cycles: 232017888 heartbeat IPC: 2.069 cumulative IPC: 1.914 (Simulation time: 03 hr 59 min 34 sec)
Heartbeat CPU 0 instructions: 480000003 cycles: 236624273 heartbeat IPC: 2.171 cumulative IPC: 1.919 (Simulation time: 04 hr 04 min 26 sec)
Heartbeat CPU 0 instructions: 490000000 cycles: 241124152 heartbeat IPC: 2.222 cumulative IPC: 1.925 (Simulation time: 04 hr 09 min 14 sec)
Heartbeat CPU 0 instructions: 500000000 cycles: 246029430 heartbeat IPC: 2.039 cumulative IPC: 1.927 (Simulation time: 04 hr 14 min 17 sec)
Heartbeat CPU 0 instructions: 510000003 cycles: 251462782 heartbeat IPC: 1.84 cumulative IPC: 1.925 (Simulation time: 04 hr 19 min 40 sec)
Heartbeat CPU 0 instructions: 520000001 cycles: 255950693 heartbeat IPC: 2.228 cumulative IPC: 1.931 (Simulation time: 04 hr 24 min 31 sec)
Heartbeat CPU 0 instructions: 530000002 cycles: 260920742 heartbeat IPC: 2.012 cumulative IPC: 1.932 (Simulation time: 04 hr 29 min 38 sec)
Heartbeat CPU 0 instructions: 540000000 cycles: 265866164 heartbeat IPC: 2.022 cumulative IPC: 1.934 (Simulation time: 04 hr 34 min 42 sec)
Heartbeat CPU 0 instructions: 550000001 cycles: 270539254 heartbeat IPC: 2.14 cumulative IPC: 1.938 (Simulation time: 04 hr 39 min 40 sec)
Heartbeat CPU 0 instructions: 560000000 cycles: 275497724 heartbeat IPC: 2.017 cumulative IPC: 1.939 (Simulation time: 04 hr 44 min 57 sec)
Heartbeat CPU 0 instructions: 570000004 cycles: 281145014 heartbeat IPC: 1.771 cumulative IPC: 1.936 (Simulation time: 04 hr 50 min 48 sec)
Heartbeat CPU 0 instructions: 580000003 cycles: 289105728 heartbeat IPC: 1.256 cumulative IPC: 1.916 (Simulation time: 04 hr 58 min 01 sec)
Heartbeat CPU 0 instructions: 590000002 cycles: 297567732 heartbeat IPC: 1.182 cumulative IPC: 1.895 (Simulation time: 05 hr 05 min 45 sec)
Heartbeat CPU 0 instructions: 600000000 cycles: 301955025 heartbeat IPC: 2.279 cumulative IPC: 1.9 (Simulation time: 05 hr 10 min 42 sec)
Heartbeat CPU 0 instructions: 610000002 cycles: 306302317 heartbeat IPC: 2.3 cumulative IPC: 1.906 (Simulation time: 05 hr 15 min 25 sec)
Heartbeat CPU 0 instructions: 620000000 cycles: 311027455 heartbeat IPC: 2.116 cumulative IPC: 1.91 (Simulation time: 05 hr 20 min 36 sec)
Heartbeat CPU 0 instructions: 630000002 cycles: 315986171 heartbeat IPC: 2.017 cumulative IPC: 1.911 (Simulation time: 05 hr 25 min 48 sec)
Heartbeat CPU 0 instructions: 640000001 cycles: 320788215 heartbeat IPC: 2.082 cumulative IPC: 1.914 (Simulation time: 05 hr 30 min 50 sec)
Heartbeat CPU 0 instructions: 650000000 cycles: 325296154 heartbeat IPC: 2.218 cumulative IPC: 1.918 (Simulation time: 05 hr 35 min 51 sec)
Simulation finished CPU 0 instructions: 600000001 cycles: 312759041 cumulative IPC: 1.918 (Simulation time: 05 hr 35 min 51 sec)
Simulation complete CPU 0 instructions: 600000001 cycles: 312759041 cumulative IPC: 1.918 (Simulation time: 05 hr 35 min 51 sec)

ChampSim completed all CPUs

=== Simulation ===
CPU 0 runs traces/400.perlbench-41B.champsimtrace.xz
Region of Interest Statistics

CPU 0 cumulative IPC: 1.918 instructions: 600000001 cycles: 312759041
CPU 0 Branch Prediction Accuracy: 93.95% MPKI: 12.5 Average ROB Occupancy at Mispredict: 29.33
Branch type MPKI
BRANCH_DIRECT_JUMP: 0.0123
BRANCH_INDIRECT: 0.323
BRANCH_CONDITIONAL: 12
BRANCH_DIRECT_CALL: 0.0043
BRANCH_INDIRECT_CALL: 0.2
BRANCH_RETURN: 0.00828

LLC TOTAL        ACCESS:     939861 HIT:     802714 MISS:     137147
LLC LOAD         ACCESS:     401299 HIT:     340286 MISS:      61013
LLC RFO          ACCESS:      32792 HIT:      26499 MISS:       6293
LLC PREFETCH     ACCESS:     401299 HIT:     338812 MISS:      62487
LLC WRITE        ACCESS:      85380 HIT:      85303 MISS:         77
LLC TRANSLATION  ACCESS:      19091 HIT:      11814 MISS:       7277
LLC PREFETCH REQUESTED:     401299 ISSUED:     401299 USEFUL:      22472 USELESS:      16736
LLC AVERAGE MISS LATENCY: 458.7 cycles
cpu0_DTLB TOTAL        ACCESS:  153692409 HIT:  153015973 MISS:     676436
cpu0_DTLB LOAD         ACCESS:  153692409 HIT:  153015973 MISS:     676436
cpu0_DTLB RFO          ACCESS:          0 HIT:          0 MISS:          0
cpu0_DTLB PREFETCH     ACCESS:          0 HIT:          0 MISS:          0
cpu0_DTLB WRITE        ACCESS:          0 HIT:          0 MISS:          0
cpu0_DTLB TRANSLATION  ACCESS:          0 HIT:          0 MISS:          0
cpu0_DTLB PREFETCH REQUESTED:          0 ISSUED:          0 USEFUL:          0 USELESS:          0
cpu0_DTLB AVERAGE MISS LATENCY: 11.84 cycles
cpu0_ITLB TOTAL        ACCESS:    4838159 HIT:    4780252 MISS:      57907
cpu0_ITLB LOAD         ACCESS:    4838159 HIT:    4780252 MISS:      57907
cpu0_ITLB RFO          ACCESS:          0 HIT:          0 MISS:          0
cpu0_ITLB PREFETCH     ACCESS:          0 HIT:          0 MISS:          0
cpu0_ITLB WRITE        ACCESS:          0 HIT:          0 MISS:          0
cpu0_ITLB TRANSLATION  ACCESS:          0 HIT:          0 MISS:          0
cpu0_ITLB PREFETCH REQUESTED:          0 ISSUED:          0 USEFUL:          0 USELESS:          0
cpu0_ITLB AVERAGE MISS LATENCY: 5.22 cycles
cpu0_L1D TOTAL        ACCESS:  200321787 HIT:  198628725 MISS:    1693062
cpu0_L1D LOAD         ACCESS:  117078765 HIT:  115758008 MISS:    1320757
cpu0_L1D RFO          ACCESS:          0 HIT:          0 MISS:          0
cpu0_L1D PREFETCH     ACCESS:          0 HIT:          0 MISS:          0
cpu0_L1D WRITE        ACCESS:   83218562 HIT:   82869677 MISS:     348885
cpu0_L1D TRANSLATION  ACCESS:      24460 HIT:       1040 MISS:      23420
cpu0_L1D PREFETCH REQUESTED:          0 ISSUED:          0 USEFUL:          0 USELESS:          0
cpu0_L1D AVERAGE MISS LATENCY: 30.59 cycles
cpu0_L1I TOTAL        ACCESS:    5580450 HIT:    4818973 MISS:     761477
cpu0_L1I LOAD         ACCESS:    5580450 HIT:    4818973 MISS:     761477
cpu0_L1I RFO          ACCESS:          0 HIT:          0 MISS:          0
cpu0_L1I PREFETCH     ACCESS:          0 HIT:          0 MISS:          0
cpu0_L1I WRITE        ACCESS:          0 HIT:          0 MISS:          0
cpu0_L1I TRANSLATION  ACCESS:          0 HIT:          0 MISS:          0
cpu0_L1I PREFETCH REQUESTED:          0 ISSUED:          0 USEFUL:          0 USELESS:          0
cpu0_L1I AVERAGE MISS LATENCY: 9.36 cycles
cpu0_L2C TOTAL        ACCESS:    1667998 HIT:    1212975 MISS:     455023
cpu0_L2C LOAD         ACCESS:    1317190 HIT:     915891 MISS:     401299
cpu0_L2C RFO          ACCESS:      88576 HIT:      55784 MISS:      32792
cpu0_L2C PREFETCH     ACCESS:          0 HIT:          0 MISS:          0
cpu0_L2C WRITE        ACCESS:     238888 HIT:     237047 MISS:       1841
cpu0_L2C TRANSLATION  ACCESS:      23344 HIT:       4253 MISS:      19091
cpu0_L2C PREFETCH REQUESTED:          0 ISSUED:          0 USEFUL:          0 USELESS:          0
cpu0_L2C AVERAGE MISS LATENCY: 104.1 cycles
cpu0_STLB TOTAL        ACCESS:     505139 HIT:     482350 MISS:      22789
cpu0_STLB LOAD         ACCESS:     505139 HIT:     482350 MISS:      22789
cpu0_STLB RFO          ACCESS:          0 HIT:          0 MISS:          0
cpu0_STLB PREFETCH     ACCESS:          0 HIT:          0 MISS:          0
cpu0_STLB WRITE        ACCESS:          0 HIT:          0 MISS:          0
cpu0_STLB TRANSLATION  ACCESS:          0 HIT:          0 MISS:          0
cpu0_STLB PREFETCH REQUESTED:          0 ISSUED:          0 USEFUL:          0 USELESS:          0
cpu0_STLB AVERAGE MISS LATENCY: 220.4 cycles

DRAM Statistics

Channel 0 RQ ROW_BUFFER_HIT:      25192
  ROW_BUFFER_MISS:      90241
 AVG DBUS CONGESTED CYCLE: 3.792
WQ ROW_BUFFER_HIT: Channel 0 
  ROW_BUFFER_MISS:       3921
  FULL:       5521
