WARNING: physical memory size is smaller than virtual memory size.

*** ChampSim Multicore Out-of-Order Simulator ***
Warmup Instructions: 50000000
Simulation Instructions: 600000000
Number of CPUs: 1
Page size: 4096

Off-chip DRAM Size: 4 GiB Channels: 1 Width: 64-bit Data Race: 3200 MT/s
Heartbeat CPU 0 instructions: 10000001 cycles: 2500318 heartbeat IPC: 3.999 cumulative IPC: 3.999 (Simulation time: 00 hr 03 min 47 sec)
Heartbeat CPU 0 instructions: 20000002 cycles: 5037113 heartbeat IPC: 3.942 cumulative IPC: 3.971 (Simulation time: 00 hr 07 min 37 sec)
Heartbeat CPU 0 instructions: 30000002 cycles: 7537113 heartbeat IPC: 4 cumulative IPC: 3.98 (Simulation time: 00 hr 11 min 07 sec)
Heartbeat CPU 0 instructions: 40000002 cycles: 10037113 heartbeat IPC: 4 cumulative IPC: 3.985 (Simulation time: 00 hr 14 min 48 sec)
Heartbeat CPU 0 instructions: 50000002 cycles: 12537113 heartbeat IPC: 4 cumulative IPC: 3.988 (Simulation time: 00 hr 18 min 21 sec)
Warmup finished CPU 0 instructions: 50000002 cycles: 12537114 cumulative IPC: 3.988 (Simulation time: 00 hr 18 min 21 sec)
Warmup complete CPU 0 instructions: 50000002 cycles: 12537114 cumulative IPC: 3.988 (Simulation time: 00 hr 18 min 21 sec)
Heartbeat CPU 0 instructions: 60000000 cycles: 16916041 heartbeat IPC: 2.284 cumulative IPC: 2.284 (Simulation time: 00 hr 23 min 22 sec)
Heartbeat CPU 0 instructions: 70000002 cycles: 21005499 heartbeat IPC: 2.445 cumulative IPC: 2.362 (Simulation time: 00 hr 28 min 16 sec)
Heartbeat CPU 0 instructions: 80000001 cycles: 25459728 heartbeat IPC: 2.245 cumulative IPC: 2.322 (Simulation time: 00 hr 33 min 25 sec)
Heartbeat CPU 0 instructions: 90000003 cycles: 29376698 heartbeat IPC: 2.553 cumulative IPC: 2.375 (Simulation time: 00 hr 38 min 12 sec)
Heartbeat CPU 0 instructions: 100000000 cycles: 33450352 heartbeat IPC: 2.455 cumulative IPC: 2.391 (Simulation time: 00 hr 43 min 03 sec)
Heartbeat CPU 0 instructions: 110000000 cycles: 37537098 heartbeat IPC: 2.447 cumulative IPC: 2.4 (Simulation time: 00 hr 47 min 54 sec)
Heartbeat CPU 0 instructions: 120000001 cycles: 41459986 heartbeat IPC: 2.549 cumulative IPC: 2.42 (Simulation time: 00 hr 52 min 40 sec)
Heartbeat CPU 0 instructions: 130000001 cycles: 45159663 heartbeat IPC: 2.703 cumulative IPC: 2.452 (Simulation time: 00 hr 57 min 35 sec)
Heartbeat CPU 0 instructions: 140000001 cycles: 49268162 heartbeat IPC: 2.434 cumulative IPC: 2.45 (Simulation time: 01 hr 02 min 26 sec)
Heartbeat CPU 0 instructions: 150000001 cycles: 53369972 heartbeat IPC: 2.438 cumulative IPC: 2.449 (Simulation time: 01 hr 07 min 18 sec)
Heartbeat CPU 0 instructions: 160000004 cycles: 57564319 heartbeat IPC: 2.384 cumulative IPC: 2.443 (Simulation time: 01 hr 12 min 15 sec)
Heartbeat CPU 0 instructions: 170000001 cycles: 65149186 heartbeat IPC: 1.318 cumulative IPC: 2.281 (Simulation time: 01 hr 19 min 23 sec)
Heartbeat CPU 0 instructions: 180000004 cycles: 72544554 heartbeat IPC: 1.352 cumulative IPC: 2.166 (Simulation time: 01 hr 26 min 37 sec)
Heartbeat CPU 0 instructions: 190000001 cycles: 78889200 heartbeat IPC: 1.576 cumulative IPC: 2.11 (Simulation time: 01 hr 33 min 10 sec)
Heartbeat CPU 0 instructions: 200000004 cycles: 82470053 heartbeat IPC: 2.793 cumulative IPC: 2.145 (Simulation time: 01 hr 37 min 57 sec)
Heartbeat CPU 0 instructions: 210000001 cycles: 86044286 heartbeat IPC: 2.798 cumulative IPC: 2.177 (Simulation time: 01 hr 42 min 33 sec)
Heartbeat CPU 0 instructions: 220000000 cycles: 89705064 heartbeat IPC: 2.732 cumulative IPC: 2.203 (Simulation time: 01 hr 47 min 10 sec)
Heartbeat CPU 0 instructions: 230000002 cycles: 93787587 heartbeat IPC: 2.449 cumulative IPC: 2.215 (Simulation time: 01 hr 51 min 59 sec)
Heartbeat CPU 0 instructions: 240000002 cycles: 97623662 heartbeat IPC: 2.607 cumulative IPC: 2.233 (Simulation time: 01 hr 56 min 41 sec)
Heartbeat CPU 0 instructions: 250000000 cycles: 101532795 heartbeat IPC: 2.558 cumulative IPC: 2.247 (Simulation time: 02 hr 01 min 24 sec)
Heartbeat CPU 0 instructions: 260000000 cycles: 105286330 heartbeat IPC: 2.664 cumulative IPC: 2.264 (Simulation time: 02 hr 06 min 05 sec)
Heartbeat CPU 0 instructions: 270000002 cycles: 108925272 heartbeat IPC: 2.748 cumulative IPC: 2.282 (Simulation time: 02 hr 10 min 41 sec)
Heartbeat CPU 0 instructions: 280000002 cycles: 112794210 heartbeat IPC: 2.585 cumulative IPC: 2.294 (Simulation time: 02 hr 15 min 24 sec)
Heartbeat CPU 0 instructions: 290000002 cycles: 116431021 heartbeat IPC: 2.75 cumulative IPC: 2.31 (Simulation time: 02 hr 20 min 01 sec)
Heartbeat CPU 0 instructions: 300000003 cycles: 119961003 heartbeat IPC: 2.833 cumulative IPC: 2.327 (Simulation time: 02 hr 24 min 38 sec)
Heartbeat CPU 0 instructions: 310000001 cycles: 123738736 heartbeat IPC: 2.647 cumulative IPC: 2.338 (Simulation time: 02 hr 29 min 18 sec)
Heartbeat CPU 0 instructions: 320000003 cycles: 127529142 heartbeat IPC: 2.638 cumulative IPC: 2.348 (Simulation time: 02 hr 34 min 00 sec)
Heartbeat CPU 0 instructions: 330000003 cycles: 131494246 heartbeat IPC: 2.522 cumulative IPC: 2.354 (Simulation time: 02 hr 38 min 44 sec)
Heartbeat CPU 0 instructions: 340000000 cycles: 138388640 heartbeat IPC: 1.45 cumulative IPC: 2.304 (Simulation time: 02 hr 45 min 33 sec)
Heartbeat CPU 0 instructions: 350000000 cycles: 145891799 heartbeat IPC: 1.333 cumulative IPC: 2.25 (Simulation time: 02 hr 52 min 48 sec)
Heartbeat CPU 0 instructions: 360000004 cycles: 152307436 heartbeat IPC: 1.559 cumulative IPC: 2.218 (Simulation time: 02 hr 59 min 20 sec)
Heartbeat CPU 0 instructions: 370000001 cycles: 155543911 heartbeat IPC: 3.09 cumulative IPC: 2.238 (Simulation time: 03 hr 03 min 45 sec)
Heartbeat CPU 0 instructions: 380000001 cycles: 158723376 heartbeat IPC: 3.145 cumulative IPC: 2.257 (Simulation time: 03 hr 08 min 10 sec)
Heartbeat CPU 0 instructions: 390000004 cycles: 162131459 heartbeat IPC: 2.934 cumulative IPC: 2.273 (Simulation time: 03 hr 12 min 42 sec)
Heartbeat CPU 0 instructions: 400000004 cycles: 165571411 heartbeat IPC: 2.907 cumulative IPC: 2.287 (Simulation time: 03 hr 17 min 16 sec)
Heartbeat CPU 0 instructions: 410000001 cycles: 169075294 heartbeat IPC: 2.854 cumulative IPC: 2.3 (Simulation time: 03 hr 22 min 00 sec)
Heartbeat CPU 0 instructions: 420000002 cycles: 172808378 heartbeat IPC: 2.679 cumulative IPC: 2.309 (Simulation time: 03 hr 26 min 41 sec)
Heartbeat CPU 0 instructions: 430000001 cycles: 176204585 heartbeat IPC: 2.944 cumulative IPC: 2.322 (Simulation time: 03 hr 31 min 21 sec)
Heartbeat CPU 0 instructions: 440000004 cycles: 179855321 heartbeat IPC: 2.739 cumulative IPC: 2.331 (Simulation time: 03 hr 35 min 37 sec)
Heartbeat CPU 0 instructions: 450000002 cycles: 183113298 heartbeat IPC: 3.069 cumulative IPC: 2.345 (Simulation time: 03 hr 39 min 52 sec)
Heartbeat CPU 0 instructions: 460000000 cycles: 186433760 heartbeat IPC: 3.012 cumulative IPC: 2.358 (Simulation time: 03 hr 44 min 17 sec)
Heartbeat CPU 0 instructions: 470000001 cycles: 189720730 heartbeat IPC: 3.042 cumulative IPC: 2.37 (Simulation time: 03 hr 48 min 43 sec)
Heartbeat CPU 0 instructions: 480000003 cycles: 193229037 heartbeat IPC: 2.85 cumulative IPC: 2.38 (Simulation time: 03 hr 53 min 15 sec)
Heartbeat CPU 0 instructions: 490000000 cycles: 196576250 heartbeat IPC: 2.988 cumulative IPC: 2.391 (Simulation time: 03 hr 57 min 39 sec)
Heartbeat CPU 0 instructions: 500000004 cycles: 200058111 heartbeat IPC: 2.872 cumulative IPC: 2.4 (Simulation time: 04 hr 02 min 10 sec)
Heartbeat CPU 0 instructions: 510000003 cycles: 203483491 heartbeat IPC: 2.919 cumulative IPC: 2.409 (Simulation time: 04 hr 06 min 42 sec)
Heartbeat CPU 0 instructions: 520000000 cycles: 206607995 heartbeat IPC: 3.201 cumulative IPC: 2.422 (Simulation time: 04 hr 11 min 05 sec)
Heartbeat CPU 0 instructions: 530000002 cycles: 210104287 heartbeat IPC: 2.86 cumulative IPC: 2.43 (Simulation time: 04 hr 15 min 39 sec)
Heartbeat CPU 0 instructions: 540000000 cycles: 213432864 heartbeat IPC: 3.004 cumulative IPC: 2.439 (Simulation time: 04 hr 20 min 07 sec)
Heartbeat CPU 0 instructions: 550000001 cycles: 216923195 heartbeat IPC: 2.865 cumulative IPC: 2.446 (Simulation time: 04 hr 24 min 40 sec)
Heartbeat CPU 0 instructions: 560000004 cycles: 220521331 heartbeat IPC: 2.779 cumulative IPC: 2.452 (Simulation time: 04 hr 29 min 17 sec)
Heartbeat CPU 0 instructions: 570000004 cycles: 225411164 heartbeat IPC: 2.045 cumulative IPC: 2.443 (Simulation time: 04 hr 34 min 46 sec)
Heartbeat CPU 0 instructions: 580000003 cycles: 232576991 heartbeat IPC: 1.396 cumulative IPC: 2.409 (Simulation time: 04 hr 41 min 47 sec)
Heartbeat CPU 0 instructions: 590000002 cycles: 240411294 heartbeat IPC: 1.276 cumulative IPC: 2.37 (Simulation time: 04 hr 49 min 15 sec)
Heartbeat CPU 0 instructions: 600000000 cycles: 243882699 heartbeat IPC: 2.881 cumulative IPC: 2.377 (Simulation time: 04 hr 53 min 45 sec)
Heartbeat CPU 0 instructions: 610000002 cycles: 247464366 heartbeat IPC: 2.792 cumulative IPC: 2.384 (Simulation time: 04 hr 58 min 17 sec)
Heartbeat CPU 0 instructions: 620000001 cycles: 250745590 heartbeat IPC: 3.048 cumulative IPC: 2.393 (Simulation time: 05 hr 02 min 42 sec)
Heartbeat CPU 0 instructions: 630000002 cycles: 254689338 heartbeat IPC: 2.536 cumulative IPC: 2.395 (Simulation time: 05 hr 07 min 41 sec)
Heartbeat CPU 0 instructions: 640000001 cycles: 258375018 heartbeat IPC: 2.713 cumulative IPC: 2.4 (Simulation time: 05 hr 12 min 24 sec)
Heartbeat CPU 0 instructions: 650000000 cycles: 261960308 heartbeat IPC: 2.789 cumulative IPC: 2.406 (Simulation time: 05 hr 16 min 58 sec)
Simulation finished CPU 0 instructions: 600000001 cycles: 249423196 cumulative IPC: 2.406 (Simulation time: 05 hr 16 min 58 sec)
Simulation complete CPU 0 instructions: 600000001 cycles: 249423196 cumulative IPC: 2.406 (Simulation time: 05 hr 16 min 58 sec)

ChampSim completed all CPUs

=== Simulation ===
CPU 0 runs traces/400.perlbench-41B.champsimtrace.xz
Region of Interest Statistics

CPU 0 cumulative IPC: 2.406 instructions: 600000001 cycles: 249423196
CPU 0 Branch Prediction Accuracy: 96.64% MPKI: 6.948 Average ROB Occupancy at Mispredict: 45.2
Branch type MPKI
BRANCH_DIRECT_JUMP: 0.0123
BRANCH_INDIRECT: 0.323
BRANCH_CONDITIONAL: 6.4
BRANCH_DIRECT_CALL: 0.0043
BRANCH_INDIRECT_CALL: 0.2
BRANCH_RETURN: 0.00828

LLC TOTAL        ACCESS:     937989 HIT:     862332 MISS:      75657
LLC LOAD         ACCESS:     400605 HIT:     369924 MISS:      30681
LLC RFO          ACCESS:      32501 HIT:      27484 MISS:       5017
LLC PREFETCH     ACCESS:     400605 HIT:     368447 MISS:      32158
LLC WRITE        ACCESS:      85226 HIT:      84794 MISS:        432
LLC TRANSLATION  ACCESS:      19052 HIT:      11683 MISS:       7369
LLC PREFETCH REQUESTED:     400605 ISSUED:     400605 USEFUL:      10287 USELESS:       8263
LLC AVERAGE MISS LATENCY: 471.2 cycles
cpu0_DTLB TOTAL        ACCESS:  141375783 HIT:  140702219 MISS:     673564
cpu0_DTLB LOAD         ACCESS:  141375783 HIT:  140702219 MISS:     673564
cpu0_DTLB RFO          ACCESS:          0 HIT:          0 MISS:          0
cpu0_DTLB PREFETCH     ACCESS:          0 HIT:          0 MISS:          0
cpu0_DTLB WRITE        ACCESS:          0 HIT:          0 MISS:          0
cpu0_DTLB TRANSLATION  ACCESS:          0 HIT:          0 MISS:          0
cpu0_DTLB PREFETCH REQUESTED:          0 ISSUED:          0 USEFUL:          0 USELESS:          0
cpu0_DTLB AVERAGE MISS LATENCY: 11.35 cycles
cpu0_ITLB TOTAL        ACCESS:    4858323 HIT:    4811637 MISS:      46686
cpu0_ITLB LOAD         ACCESS:    4858323 HIT:    4811637 MISS:      46686
cpu0_ITLB RFO          ACCESS:          0 HIT:          0 MISS:          0
cpu0_ITLB PREFETCH     ACCESS:          0 HIT:          0 MISS:          0
cpu0_ITLB WRITE        ACCESS:          0 HIT:          0 MISS:          0
cpu0_ITLB TRANSLATION  ACCESS:          0 HIT:          0 MISS:          0
cpu0_ITLB PREFETCH REQUESTED:          0 ISSUED:          0 USEFUL:          0 USELESS:          0
cpu0_ITLB AVERAGE MISS LATENCY: 6.486 cycles
cpu0_L1D TOTAL        ACCESS:  188035438 HIT:  186382587 MISS:    1652851
cpu0_L1D LOAD         ACCESS:  104709514 HIT:  103421982 MISS:    1287532
cpu0_L1D RFO          ACCESS:          0 HIT:          0 MISS:          0
cpu0_L1D PREFETCH     ACCESS:          0 HIT:          0 MISS:          0
cpu0_L1D WRITE        ACCESS:   83301457 HIT:   82959542 MISS:     341915
cpu0_L1D TRANSLATION  ACCESS:      24467 HIT:       1063 MISS:      23404
cpu0_L1D PREFETCH REQUESTED:          0 ISSUED:          0 USEFUL:          0 USELESS:          0
cpu0_L1D AVERAGE MISS LATENCY: 21.91 cycles
cpu0_L1I TOTAL        ACCESS:    5596008 HIT:    4875916 MISS:     720092
cpu0_L1I LOAD         ACCESS:    5596008 HIT:    4875916 MISS:     720092
cpu0_L1I RFO          ACCESS:          0 HIT:          0 MISS:          0
cpu0_L1I PREFETCH     ACCESS:          0 HIT:          0 MISS:          0
cpu0_L1I WRITE        ACCESS:          0 HIT:          0 MISS:          0
cpu0_L1I TRANSLATION  ACCESS:          0 HIT:          0 MISS:          0
cpu0_L1I PREFETCH REQUESTED:          0 ISSUED:          0 USEFUL:          0 USELESS:          0
cpu0_L1I AVERAGE MISS LATENCY: 9.296 cycles
cpu0_L2C TOTAL        ACCESS:    1666545 HIT:    1212602 MISS:     453943
cpu0_L2C LOAD         ACCESS:    1316625 HIT:     916020 MISS:     400605
cpu0_L2C RFO          ACCESS:      88039 HIT:      55538 MISS:      32501
cpu0_L2C PREFETCH     ACCESS:          0 HIT:          0 MISS:          0
cpu0_L2C WRITE        ACCESS:     238534 HIT:     236749 MISS:       1785
cpu0_L2C TRANSLATION  ACCESS:      23347 HIT:       4295 MISS:      19052
cpu0_L2C PREFETCH REQUESTED:          0 ISSUED:          0 USEFUL:          0 USELESS:          0
cpu0_L2C AVERAGE MISS LATENCY: 67.97 cycles
cpu0_STLB TOTAL        ACCESS:     505628 HIT:     482837 MISS:      22791
cpu0_STLB LOAD         ACCESS:     505628 HIT:     482837 MISS:      22791
cpu0_STLB RFO          ACCESS:          0 HIT:          0 MISS:          0
cpu0_STLB PREFETCH     ACCESS:          0 HIT:          0 MISS:          0
cpu0_STLB WRITE        ACCESS:          0 HIT:          0 MISS:          0
cpu0_STLB TRANSLATION  ACCESS:          0 HIT:          0 MISS:          0
cpu0_STLB PREFETCH REQUESTED:          0 ISSUED:          0 USEFUL:          0 USELESS:          0
cpu0_STLB AVERAGE MISS LATENCY: 201.1 cycles

DRAM Statistics

Channel 0 RQ ROW_BUFFER_HIT:      16049
  ROW_BUFFER_MISS:      49509
 AVG DBUS CONGESTED CYCLE: 3.779
WQ ROW_BUFFER_HIT: Channel 0 
  ROW_BUFFER_MISS:       1132
  FULL:       2338
