WARNING: physical memory size is smaller than virtual memory size.

*** ChampSim Multicore Out-of-Order Simulator ***
Warmup Instructions: 50000000
Simulation Instructions: 600000000
Number of CPUs: 1
Page size: 4096

CPU 0 Tage branch predictor
Off-chip DRAM Size: 4 GiB Channels: 1 Width: 64-bit Data Race: 3200 MT/s
Heartbeat CPU 0 instructions: 10000000 cycles: 2500061 heartbeat IPC: 4 cumulative IPC: 4 (Simulation time: 00 hr 00 min 31 sec)
Heartbeat CPU 0 instructions: 20000000 cycles: 5000061 heartbeat IPC: 4 cumulative IPC: 4 (Simulation time: 00 hr 01 min 09 sec)
Heartbeat CPU 0 instructions: 30000000 cycles: 7500061 heartbeat IPC: 4 cumulative IPC: 4 (Simulation time: 00 hr 02 min 00 sec)
Heartbeat CPU 0 instructions: 40000000 cycles: 10000061 heartbeat IPC: 4 cumulative IPC: 4 (Simulation time: 00 hr 03 min 03 sec)
Heartbeat CPU 0 instructions: 50000000 cycles: 12500061 heartbeat IPC: 4 cumulative IPC: 4 (Simulation time: 00 hr 04 min 15 sec)
Warmup finished CPU 0 instructions: 50000000 cycles: 12500062 cumulative IPC: 4 (Simulation time: 00 hr 04 min 15 sec)
Warmup complete CPU 0 instructions: 50000000 cycles: 12500062 cumulative IPC: 4 (Simulation time: 00 hr 04 min 15 sec)
Heartbeat CPU 0 instructions: 60000004 cycles: 15503677 heartbeat IPC: 3.329 cumulative IPC: 3.329 (Simulation time: 00 hr 05 min 50 sec)
Heartbeat CPU 0 instructions: 70000003 cycles: 18382317 heartbeat IPC: 3.474 cumulative IPC: 3.4 (Simulation time: 00 hr 07 min 32 sec)
Heartbeat CPU 0 instructions: 80000002 cycles: 21404747 heartbeat IPC: 3.309 cumulative IPC: 3.369 (Simulation time: 00 hr 09 min 04 sec)
Heartbeat CPU 0 instructions: 90000000 cycles: 24127135 heartbeat IPC: 3.673 cumulative IPC: 3.44 (Simulation time: 00 hr 10 min 33 sec)
Heartbeat CPU 0 instructions: 100000003 cycles: 26893697 heartbeat IPC: 3.615 cumulative IPC: 3.474 (Simulation time: 00 hr 12 min 10 sec)
Heartbeat CPU 0 instructions: 110000001 cycles: 29799971 heartbeat IPC: 3.441 cumulative IPC: 3.468 (Simulation time: 00 hr 13 min 46 sec)
Heartbeat CPU 0 instructions: 120000001 cycles: 32524189 heartbeat IPC: 3.671 cumulative IPC: 3.496 (Simulation time: 00 hr 15 min 20 sec)
Heartbeat CPU 0 instructions: 130000003 cycles: 35426960 heartbeat IPC: 3.445 cumulative IPC: 3.489 (Simulation time: 00 hr 17 min 03 sec)
Heartbeat CPU 0 instructions: 140000002 cycles: 38265022 heartbeat IPC: 3.524 cumulative IPC: 3.493 (Simulation time: 00 hr 18 min 45 sec)
Heartbeat CPU 0 instructions: 150000001 cycles: 41038933 heartbeat IPC: 3.605 cumulative IPC: 3.504 (Simulation time: 00 hr 20 min 19 sec)
Heartbeat CPU 0 instructions: 160000000 cycles: 43953820 heartbeat IPC: 3.431 cumulative IPC: 3.497 (Simulation time: 00 hr 21 min 48 sec)
Heartbeat CPU 0 instructions: 170000001 cycles: 46884845 heartbeat IPC: 3.412 cumulative IPC: 3.49 (Simulation time: 00 hr 23 min 29 sec)
Heartbeat CPU 0 instructions: 180000000 cycles: 49682531 heartbeat IPC: 3.574 cumulative IPC: 3.496 (Simulation time: 00 hr 25 min 11 sec)
Heartbeat CPU 0 instructions: 190000002 cycles: 52390539 heartbeat IPC: 3.693 cumulative IPC: 3.51 (Simulation time: 00 hr 26 min 52 sec)
Heartbeat CPU 0 instructions: 200000002 cycles: 55219937 heartbeat IPC: 3.534 cumulative IPC: 3.511 (Simulation time: 00 hr 28 min 33 sec)
Heartbeat CPU 0 instructions: 210000000 cycles: 58119126 heartbeat IPC: 3.449 cumulative IPC: 3.507 (Simulation time: 00 hr 30 min 08 sec)
Heartbeat CPU 0 instructions: 220000001 cycles: 60883566 heartbeat IPC: 3.617 cumulative IPC: 3.514 (Simulation time: 00 hr 30 min 50 sec)
Heartbeat CPU 0 instructions: 230000002 cycles: 63776820 heartbeat IPC: 3.456 cumulative IPC: 3.51 (Simulation time: 00 hr 31 min 35 sec)
Heartbeat CPU 0 instructions: 240000004 cycles: 66737011 heartbeat IPC: 3.378 cumulative IPC: 3.503 (Simulation time: 00 hr 32 min 19 sec)
Heartbeat CPU 0 instructions: 250000003 cycles: 69643379 heartbeat IPC: 3.441 cumulative IPC: 3.5 (Simulation time: 00 hr 33 min 06 sec)
Heartbeat CPU 0 instructions: 260000001 cycles: 72434967 heartbeat IPC: 3.582 cumulative IPC: 3.504 (Simulation time: 00 hr 33 min 52 sec)
Heartbeat CPU 0 instructions: 270000002 cycles: 77840334 heartbeat IPC: 1.85 cumulative IPC: 3.367 (Simulation time: 00 hr 34 min 54 sec)
Heartbeat CPU 0 instructions: 280000000 cycles: 85712001 heartbeat IPC: 1.27 cumulative IPC: 3.142 (Simulation time: 00 hr 36 min 11 sec)
Heartbeat CPU 0 instructions: 290000000 cycles: 92189928 heartbeat IPC: 1.544 cumulative IPC: 3.012 (Simulation time: 00 hr 37 min 25 sec)
Heartbeat CPU 0 instructions: 300000003 cycles: 97126644 heartbeat IPC: 2.026 cumulative IPC: 2.954 (Simulation time: 00 hr 38 min 32 sec)
Heartbeat CPU 0 instructions: 310000001 cycles: 104487337 heartbeat IPC: 1.359 cumulative IPC: 2.826 (Simulation time: 00 hr 39 min 50 sec)
Heartbeat CPU 0 instructions: 320000004 cycles: 108129070 heartbeat IPC: 2.746 cumulative IPC: 2.823 (Simulation time: 00 hr 40 min 43 sec)
Heartbeat CPU 0 instructions: 330000000 cycles: 111257567 heartbeat IPC: 3.196 cumulative IPC: 2.835 (Simulation time: 00 hr 41 min 32 sec)
Heartbeat CPU 0 instructions: 340000001 cycles: 114131255 heartbeat IPC: 3.48 cumulative IPC: 2.853 (Simulation time: 00 hr 42 min 20 sec)
Heartbeat CPU 0 instructions: 350000000 cycles: 117142282 heartbeat IPC: 3.321 cumulative IPC: 2.867 (Simulation time: 00 hr 43 min 10 sec)
Heartbeat CPU 0 instructions: 360000004 cycles: 119968631 heartbeat IPC: 3.538 cumulative IPC: 2.885 (Simulation time: 00 hr 43 min 57 sec)
Heartbeat CPU 0 instructions: 370000001 cycles: 122787398 heartbeat IPC: 3.548 cumulative IPC: 2.902 (Simulation time: 00 hr 44 min 44 sec)
Heartbeat CPU 0 instructions: 380000004 cycles: 125625457 heartbeat IPC: 3.524 cumulative IPC: 2.917 (Simulation time: 00 hr 45 min 32 sec)
Heartbeat CPU 0 instructions: 390000002 cycles: 128475313 heartbeat IPC: 3.509 cumulative IPC: 2.932 (Simulation time: 00 hr 46 min 19 sec)
Heartbeat CPU 0 instructions: 400000000 cycles: 131367521 heartbeat IPC: 3.458 cumulative IPC: 2.944 (Simulation time: 00 hr 47 min 06 sec)
Heartbeat CPU 0 instructions: 410000000 cycles: 135445038 heartbeat IPC: 2.452 cumulative IPC: 2.928 (Simulation time: 00 hr 48 min 02 sec)
Heartbeat CPU 0 instructions: 420000003 cycles: 140316233 heartbeat IPC: 2.053 cumulative IPC: 2.895 (Simulation time: 00 hr 49 min 06 sec)
Heartbeat CPU 0 instructions: 430000000 cycles: 144705826 heartbeat IPC: 2.278 cumulative IPC: 2.874 (Simulation time: 00 hr 50 min 10 sec)
Heartbeat CPU 0 instructions: 440000004 cycles: 148937942 heartbeat IPC: 2.363 cumulative IPC: 2.858 (Simulation time: 00 hr 51 min 12 sec)
Heartbeat CPU 0 instructions: 450000001 cycles: 153133493 heartbeat IPC: 2.383 cumulative IPC: 2.844 (Simulation time: 00 hr 52 min 14 sec)
Heartbeat CPU 0 instructions: 460000002 cycles: 158368737 heartbeat IPC: 1.91 cumulative IPC: 2.811 (Simulation time: 00 hr 53 min 22 sec)
Heartbeat CPU 0 instructions: 470000003 cycles: 163013803 heartbeat IPC: 2.153 cumulative IPC: 2.79 (Simulation time: 00 hr 54 min 25 sec)
Heartbeat CPU 0 instructions: 480000000 cycles: 166089060 heartbeat IPC: 3.252 cumulative IPC: 2.8 (Simulation time: 00 hr 55 min 14 sec)
Heartbeat CPU 0 instructions: 490000001 cycles: 169256957 heartbeat IPC: 3.157 cumulative IPC: 2.807 (Simulation time: 00 hr 56 min 04 sec)
Heartbeat CPU 0 instructions: 500000002 cycles: 172264396 heartbeat IPC: 3.325 cumulative IPC: 2.817 (Simulation time: 00 hr 56 min 53 sec)
Heartbeat CPU 0 instructions: 510000000 cycles: 175223726 heartbeat IPC: 3.379 cumulative IPC: 2.827 (Simulation time: 00 hr 57 min 43 sec)
Heartbeat CPU 0 instructions: 520000000 cycles: 178140295 heartbeat IPC: 3.429 cumulative IPC: 2.837 (Simulation time: 00 hr 58 min 33 sec)
Heartbeat CPU 0 instructions: 530000001 cycles: 183060965 heartbeat IPC: 2.032 cumulative IPC: 2.814 (Simulation time: 00 hr 59 min 36 sec)
Heartbeat CPU 0 instructions: 540000000 cycles: 187943158 heartbeat IPC: 2.048 cumulative IPC: 2.793 (Simulation time: 01 hr 00 min 39 sec)
Heartbeat CPU 0 instructions: 550000004 cycles: 193317314 heartbeat IPC: 1.861 cumulative IPC: 2.765 (Simulation time: 01 hr 01 min 45 sec)
Heartbeat CPU 0 instructions: 560000004 cycles: 196537662 heartbeat IPC: 3.105 cumulative IPC: 2.771 (Simulation time: 01 hr 02 min 33 sec)
Heartbeat CPU 0 instructions: 570000002 cycles: 199323413 heartbeat IPC: 3.59 cumulative IPC: 2.783 (Simulation time: 01 hr 03 min 20 sec)
Heartbeat CPU 0 instructions: 580000000 cycles: 202192026 heartbeat IPC: 3.486 cumulative IPC: 2.794 (Simulation time: 01 hr 04 min 05 sec)
Heartbeat CPU 0 instructions: 590000001 cycles: 205064104 heartbeat IPC: 3.482 cumulative IPC: 2.804 (Simulation time: 01 hr 04 min 49 sec)
Heartbeat CPU 0 instructions: 600000003 cycles: 207719149 heartbeat IPC: 3.766 cumulative IPC: 2.817 (Simulation time: 01 hr 05 min 37 sec)
Heartbeat CPU 0 instructions: 610000001 cycles: 210547030 heartbeat IPC: 3.536 cumulative IPC: 2.828 (Simulation time: 01 hr 06 min 25 sec)
Heartbeat CPU 0 instructions: 620000004 cycles: 213468275 heartbeat IPC: 3.423 cumulative IPC: 2.836 (Simulation time: 01 hr 07 min 12 sec)
Heartbeat CPU 0 instructions: 630000002 cycles: 216255015 heartbeat IPC: 3.588 cumulative IPC: 2.847 (Simulation time: 01 hr 08 min 01 sec)
Heartbeat CPU 0 instructions: 640000004 cycles: 219281722 heartbeat IPC: 3.304 cumulative IPC: 2.853 (Simulation time: 01 hr 08 min 53 sec)
Heartbeat CPU 0 instructions: 650000001 cycles: 221981920 heartbeat IPC: 3.703 cumulative IPC: 2.864 (Simulation time: 01 hr 09 min 42 sec)
Simulation finished CPU 0 instructions: 600000001 cycles: 209481859 cumulative IPC: 2.864 (Simulation time: 01 hr 09 min 42 sec)
Simulation complete CPU 0 instructions: 600000001 cycles: 209481859 cumulative IPC: 2.864 (Simulation time: 01 hr 09 min 42 sec)

ChampSim completed all CPUs

=== Simulation ===
CPU 0 runs traces/400.perlbench-50B.champsimtrace.xz
Region of Interest Statistics

CPU 0 cumulative IPC: 2.864 instructions: 600000001 cycles: 209481859
CPU 0 Branch Prediction Accuracy: 99.01% MPKI: 2.04 Average ROB Occupancy at Mispredict: 93.18
Branch type MPKI
BRANCH_DIRECT_JUMP: 0.0176
BRANCH_INDIRECT: 0.38
BRANCH_CONDITIONAL: 1.19
BRANCH_DIRECT_CALL: 0.0067
BRANCH_INDIRECT_CALL: 0.431
BRANCH_RETURN: 0.0161

LLC TOTAL        ACCESS:    1354627 HIT:    1160444 MISS:     194183
LLC LOAD         ACCESS:     578852 HIT:     494637 MISS:      84215
LLC RFO          ACCESS:      47490 HIT:      37065 MISS:      10425
LLC PREFETCH     ACCESS:     578852 HIT:     489888 MISS:      88964
LLC WRITE        ACCESS:     127347 HIT:     126646 MISS:        701
LLC TRANSLATION  ACCESS:      22086 HIT:      12208 MISS:       9878
LLC PREFETCH REQUESTED:     578852 ISSUED:     578852 USEFUL:      34051 USELESS:       8981
LLC AVERAGE MISS LATENCY: 532.4 cycles
cpu0_DTLB TOTAL        ACCESS:  133224497 HIT:  131871021 MISS:    1353476
cpu0_DTLB LOAD         ACCESS:  133224497 HIT:  131871021 MISS:    1353476
cpu0_DTLB RFO          ACCESS:          0 HIT:          0 MISS:          0
cpu0_DTLB PREFETCH     ACCESS:          0 HIT:          0 MISS:          0
cpu0_DTLB WRITE        ACCESS:          0 HIT:          0 MISS:          0
cpu0_DTLB TRANSLATION  ACCESS:          0 HIT:          0 MISS:          0
cpu0_DTLB PREFETCH REQUESTED:          0 ISSUED:          0 USEFUL:          0 USELESS:          0
cpu0_DTLB AVERAGE MISS LATENCY: 9.975 cycles
cpu0_ITLB TOTAL        ACCESS:    8982969 HIT:    8773460 MISS:     209509
cpu0_ITLB LOAD         ACCESS:    8982969 HIT:    8773460 MISS:     209509
cpu0_ITLB RFO          ACCESS:          0 HIT:          0 MISS:          0
cpu0_ITLB PREFETCH     ACCESS:          0 HIT:          0 MISS:          0
cpu0_ITLB WRITE        ACCESS:          0 HIT:          0 MISS:          0
cpu0_ITLB TRANSLATION  ACCESS:          0 HIT:          0 MISS:          0
cpu0_ITLB PREFETCH REQUESTED:          0 ISSUED:          0 USEFUL:          0 USELESS:          0
cpu0_ITLB AVERAGE MISS LATENCY: 2.493 cycles
cpu0_L1D TOTAL        ACCESS:  178296567 HIT:  174555078 MISS:    3741489
cpu0_L1D LOAD         ACCESS:   92777255 HIT:   89706302 MISS:    3070953
cpu0_L1D RFO          ACCESS:          0 HIT:          0 MISS:          0
cpu0_L1D PREFETCH     ACCESS:          0 HIT:          0 MISS:          0
cpu0_L1D WRITE        ACCESS:   85490779 HIT:   84847355 MISS:     643424
cpu0_L1D TRANSLATION  ACCESS:      28533 HIT:       1421 MISS:      27112
cpu0_L1D PREFETCH REQUESTED:          0 ISSUED:          0 USEFUL:          0 USELESS:          0
cpu0_L1D AVERAGE MISS LATENCY: 22.46 cycles
cpu0_L1I TOTAL        ACCESS:   10503915 HIT:    8605065 MISS:    1898850
cpu0_L1I LOAD         ACCESS:   10503915 HIT:    8605065 MISS:    1898850
cpu0_L1I RFO          ACCESS:          0 HIT:          0 MISS:          0
cpu0_L1I PREFETCH     ACCESS:          0 HIT:          0 MISS:          0
cpu0_L1I WRITE        ACCESS:          0 HIT:          0 MISS:          0
cpu0_L1I TRANSLATION  ACCESS:          0 HIT:          0 MISS:          0
cpu0_L1I PREFETCH REQUESTED:          0 ISSUED:          0 USEFUL:          0 USELESS:          0
cpu0_L1I AVERAGE MISS LATENCY: 8.294 cycles
cpu0_L2C TOTAL        ACCESS:    3840372 HIT:    3188987 MISS:     651385
cpu0_L2C LOAD         ACCESS:    3103843 HIT:    2524991 MISS:     578852
cpu0_L2C RFO          ACCESS:     194853 HIT:     147363 MISS:      47490
cpu0_L2C PREFETCH     ACCESS:          0 HIT:          0 MISS:          0
cpu0_L2C WRITE        ACCESS:     514641 HIT:     511684 MISS:       2957
cpu0_L2C TRANSLATION  ACCESS:      27035 HIT:       4949 MISS:      22086
cpu0_L2C PREFETCH REQUESTED:          0 ISSUED:          0 USEFUL:          0 USELESS:          0
cpu0_L2C AVERAGE MISS LATENCY: 115.1 cycles
cpu0_STLB TOTAL        ACCESS:    1009778 HIT:     983087 MISS:      26691
cpu0_STLB LOAD         ACCESS:    1009778 HIT:     983087 MISS:      26691
cpu0_STLB RFO          ACCESS:          0 HIT:          0 MISS:          0
cpu0_STLB PREFETCH     ACCESS:          0 HIT:          0 MISS:          0
cpu0_STLB WRITE        ACCESS:          0 HIT:          0 MISS:          0
cpu0_STLB TRANSLATION  ACCESS:          0 HIT:          0 MISS:          0
cpu0_STLB PREFETCH REQUESTED:          0 ISSUED:          0 USEFUL:          0 USELESS:          0
cpu0_STLB AVERAGE MISS LATENCY: 293.6 cycles

DRAM Statistics

Channel 0 RQ ROW_BUFFER_HIT:      43975
  ROW_BUFFER_MISS:     116754
 AVG DBUS CONGESTED CYCLE: 3.854
WQ ROW_BUFFER_HIT: Channel 0 
  ROW_BUFFER_MISS:       2660
  FULL:       7248
