WARNING: physical memory size is smaller than virtual memory size.

*** ChampSim Multicore Out-of-Order Simulator ***
Warmup Instructions: 50000000
Simulation Instructions: 600000000
Number of CPUs: 1
Page size: 4096

Off-chip DRAM Size: 4 GiB Channels: 1 Width: 64-bit Data Race: 3200 MT/s
Heartbeat CPU 0 instructions: 10000001 cycles: 2500318 heartbeat IPC: 3.999 cumulative IPC: 3.999 (Simulation time: 00 hr 03 min 48 sec)
Heartbeat CPU 0 instructions: 20000002 cycles: 5037128 heartbeat IPC: 3.942 cumulative IPC: 3.971 (Simulation time: 00 hr 07 min 43 sec)
Heartbeat CPU 0 instructions: 30000002 cycles: 7537128 heartbeat IPC: 4 cumulative IPC: 3.98 (Simulation time: 00 hr 11 min 28 sec)
Heartbeat CPU 0 instructions: 40000002 cycles: 10037128 heartbeat IPC: 4 cumulative IPC: 3.985 (Simulation time: 00 hr 15 min 04 sec)
Heartbeat CPU 0 instructions: 50000002 cycles: 12537128 heartbeat IPC: 4 cumulative IPC: 3.988 (Simulation time: 00 hr 18 min 38 sec)
Warmup finished CPU 0 instructions: 50000002 cycles: 12537129 cumulative IPC: 3.988 (Simulation time: 00 hr 18 min 38 sec)
Warmup complete CPU 0 instructions: 50000002 cycles: 12537129 cumulative IPC: 3.988 (Simulation time: 00 hr 18 min 38 sec)
Heartbeat CPU 0 instructions: 60000001 cycles: 15667392 heartbeat IPC: 3.195 cumulative IPC: 3.195 (Simulation time: 00 hr 23 min 02 sec)
Heartbeat CPU 0 instructions: 70000004 cycles: 18829502 heartbeat IPC: 3.162 cumulative IPC: 3.178 (Simulation time: 00 hr 27 min 31 sec)
Heartbeat CPU 0 instructions: 80000001 cycles: 21988167 heartbeat IPC: 3.166 cumulative IPC: 3.174 (Simulation time: 00 hr 31 min 57 sec)
Heartbeat CPU 0 instructions: 90000001 cycles: 25016469 heartbeat IPC: 3.302 cumulative IPC: 3.205 (Simulation time: 00 hr 36 min 21 sec)
Heartbeat CPU 0 instructions: 100000000 cycles: 28027935 heartbeat IPC: 3.321 cumulative IPC: 3.228 (Simulation time: 00 hr 40 min 42 sec)
Heartbeat CPU 0 instructions: 110000000 cycles: 31060097 heartbeat IPC: 3.298 cumulative IPC: 3.239 (Simulation time: 00 hr 45 min 02 sec)
Heartbeat CPU 0 instructions: 120000001 cycles: 34121407 heartbeat IPC: 3.267 cumulative IPC: 3.243 (Simulation time: 00 hr 49 min 25 sec)
Heartbeat CPU 0 instructions: 130000001 cycles: 37029449 heartbeat IPC: 3.439 cumulative IPC: 3.266 (Simulation time: 00 hr 53 min 48 sec)
Heartbeat CPU 0 instructions: 140000001 cycles: 40147156 heartbeat IPC: 3.207 cumulative IPC: 3.26 (Simulation time: 00 hr 58 min 16 sec)
Heartbeat CPU 0 instructions: 150000001 cycles: 43260814 heartbeat IPC: 3.212 cumulative IPC: 3.255 (Simulation time: 01 hr 02 min 43 sec)
Heartbeat CPU 0 instructions: 160000004 cycles: 46383751 heartbeat IPC: 3.202 cumulative IPC: 3.25 (Simulation time: 01 hr 07 min 10 sec)
Heartbeat CPU 0 instructions: 170000000 cycles: 52081078 heartbeat IPC: 1.755 cumulative IPC: 3.035 (Simulation time: 01 hr 13 min 26 sec)
Heartbeat CPU 0 instructions: 180000004 cycles: 56867966 heartbeat IPC: 2.089 cumulative IPC: 2.932 (Simulation time: 01 hr 19 min 18 sec)
Heartbeat CPU 0 instructions: 190000001 cycles: 61153254 heartbeat IPC: 2.334 cumulative IPC: 2.88 (Simulation time: 01 hr 24 min 48 sec)
Heartbeat CPU 0 instructions: 200000004 cycles: 63988832 heartbeat IPC: 3.527 cumulative IPC: 2.915 (Simulation time: 01 hr 29 min 03 sec)
Heartbeat CPU 0 instructions: 210000001 cycles: 66876677 heartbeat IPC: 3.463 cumulative IPC: 2.944 (Simulation time: 01 hr 33 min 21 sec)
Heartbeat CPU 0 instructions: 220000000 cycles: 69751245 heartbeat IPC: 3.479 cumulative IPC: 2.971 (Simulation time: 01 hr 37 min 40 sec)
Heartbeat CPU 0 instructions: 230000004 cycles: 72607526 heartbeat IPC: 3.501 cumulative IPC: 2.996 (Simulation time: 01 hr 41 min 53 sec)
Heartbeat CPU 0 instructions: 240000002 cycles: 75530562 heartbeat IPC: 3.421 cumulative IPC: 3.016 (Simulation time: 01 hr 46 min 10 sec)
Heartbeat CPU 0 instructions: 250000000 cycles: 78406500 heartbeat IPC: 3.477 cumulative IPC: 3.036 (Simulation time: 01 hr 50 min 24 sec)
Heartbeat CPU 0 instructions: 260000002 cycles: 81234839 heartbeat IPC: 3.536 cumulative IPC: 3.057 (Simulation time: 01 hr 54 min 40 sec)
Heartbeat CPU 0 instructions: 270000002 cycles: 84067952 heartbeat IPC: 3.53 cumulative IPC: 3.076 (Simulation time: 01 hr 58 min 54 sec)
Heartbeat CPU 0 instructions: 280000002 cycles: 86867971 heartbeat IPC: 3.571 cumulative IPC: 3.094 (Simulation time: 02 hr 03 min 08 sec)
Heartbeat CPU 0 instructions: 290000002 cycles: 89764397 heartbeat IPC: 3.453 cumulative IPC: 3.108 (Simulation time: 02 hr 07 min 27 sec)
Heartbeat CPU 0 instructions: 300000003 cycles: 92499185 heartbeat IPC: 3.657 cumulative IPC: 3.126 (Simulation time: 02 hr 11 min 43 sec)
Heartbeat CPU 0 instructions: 310000001 cycles: 95355309 heartbeat IPC: 3.501 cumulative IPC: 3.139 (Simulation time: 02 hr 15 min 56 sec)
Heartbeat CPU 0 instructions: 320000003 cycles: 98276633 heartbeat IPC: 3.423 cumulative IPC: 3.149 (Simulation time: 02 hr 20 min 13 sec)
Heartbeat CPU 0 instructions: 330000003 cycles: 101126125 heartbeat IPC: 3.509 cumulative IPC: 3.161 (Simulation time: 02 hr 24 min 26 sec)
Heartbeat CPU 0 instructions: 340000000 cycles: 105604471 heartbeat IPC: 2.233 cumulative IPC: 3.116 (Simulation time: 02 hr 30 min 12 sec)
Heartbeat CPU 0 instructions: 350000000 cycles: 110400098 heartbeat IPC: 2.085 cumulative IPC: 3.066 (Simulation time: 02 hr 36 min 05 sec)
Heartbeat CPU 0 instructions: 360000004 cycles: 114929375 heartbeat IPC: 2.208 cumulative IPC: 3.028 (Simulation time: 02 hr 41 min 41 sec)
Heartbeat CPU 0 instructions: 370000000 cycles: 117767476 heartbeat IPC: 3.523 cumulative IPC: 3.041 (Simulation time: 02 hr 45 min 57 sec)
Heartbeat CPU 0 instructions: 380000001 cycles: 120590651 heartbeat IPC: 3.542 cumulative IPC: 3.054 (Simulation time: 02 hr 50 min 13 sec)
Heartbeat CPU 0 instructions: 390000002 cycles: 123527705 heartbeat IPC: 3.405 cumulative IPC: 3.063 (Simulation time: 02 hr 54 min 34 sec)
Heartbeat CPU 0 instructions: 400000004 cycles: 126413376 heartbeat IPC: 3.465 cumulative IPC: 3.074 (Simulation time: 02 hr 58 min 52 sec)
Heartbeat CPU 0 instructions: 410000001 cycles: 129290401 heartbeat IPC: 3.476 cumulative IPC: 3.083 (Simulation time: 03 hr 03 min 08 sec)
Heartbeat CPU 0 instructions: 420000002 cycles: 132277091 heartbeat IPC: 3.348 cumulative IPC: 3.09 (Simulation time: 03 hr 07 min 27 sec)
Heartbeat CPU 0 instructions: 430000001 cycles: 135184969 heartbeat IPC: 3.439 cumulative IPC: 3.098 (Simulation time: 03 hr 11 min 47 sec)
Heartbeat CPU 0 instructions: 440000004 cycles: 138228968 heartbeat IPC: 3.285 cumulative IPC: 3.103 (Simulation time: 03 hr 16 min 18 sec)
Heartbeat CPU 0 instructions: 450000002 cycles: 141038721 heartbeat IPC: 3.559 cumulative IPC: 3.113 (Simulation time: 03 hr 20 min 45 sec)
Heartbeat CPU 0 instructions: 460000000 cycles: 143906115 heartbeat IPC: 3.487 cumulative IPC: 3.121 (Simulation time: 03 hr 25 min 03 sec)
Heartbeat CPU 0 instructions: 470000001 cycles: 146682138 heartbeat IPC: 3.602 cumulative IPC: 3.131 (Simulation time: 03 hr 29 min 20 sec)
Heartbeat CPU 0 instructions: 480000003 cycles: 149648965 heartbeat IPC: 3.371 cumulative IPC: 3.136 (Simulation time: 03 hr 33 min 37 sec)
Heartbeat CPU 0 instructions: 490000004 cycles: 152435355 heartbeat IPC: 3.589 cumulative IPC: 3.145 (Simulation time: 03 hr 37 min 50 sec)
Heartbeat CPU 0 instructions: 500000004 cycles: 155380933 heartbeat IPC: 3.395 cumulative IPC: 3.15 (Simulation time: 03 hr 42 min 11 sec)
Heartbeat CPU 0 instructions: 510000003 cycles: 158285071 heartbeat IPC: 3.443 cumulative IPC: 3.156 (Simulation time: 03 hr 46 min 44 sec)
Heartbeat CPU 0 instructions: 520000001 cycles: 161069131 heartbeat IPC: 3.592 cumulative IPC: 3.164 (Simulation time: 03 hr 50 min 59 sec)
Heartbeat CPU 0 instructions: 530000001 cycles: 163980707 heartbeat IPC: 3.435 cumulative IPC: 3.169 (Simulation time: 03 hr 55 min 18 sec)
Heartbeat CPU 0 instructions: 540000001 cycles: 166870998 heartbeat IPC: 3.46 cumulative IPC: 3.175 (Simulation time: 03 hr 59 min 36 sec)
Heartbeat CPU 0 instructions: 550000001 cycles: 169826562 heartbeat IPC: 3.383 cumulative IPC: 3.179 (Simulation time: 04 hr 03 min 57 sec)
Heartbeat CPU 0 instructions: 560000004 cycles: 172810599 heartbeat IPC: 3.351 cumulative IPC: 3.182 (Simulation time: 04 hr 08 min 20 sec)
Heartbeat CPU 0 instructions: 570000004 cycles: 176518489 heartbeat IPC: 2.697 cumulative IPC: 3.171 (Simulation time: 04 hr 13 min 28 sec)
Heartbeat CPU 0 instructions: 580000003 cycles: 181127112 heartbeat IPC: 2.17 cumulative IPC: 3.144 (Simulation time: 04 hr 19 min 14 sec)
Heartbeat CPU 0 instructions: 590000002 cycles: 186066889 heartbeat IPC: 2.024 cumulative IPC: 3.112 (Simulation time: 04 hr 25 min 14 sec)
Heartbeat CPU 0 instructions: 600000000 cycles: 188965762 heartbeat IPC: 3.45 cumulative IPC: 3.117 (Simulation time: 04 hr 29 min 33 sec)
Heartbeat CPU 0 instructions: 610000002 cycles: 191850821 heartbeat IPC: 3.466 cumulative IPC: 3.123 (Simulation time: 04 hr 33 min 50 sec)
Heartbeat CPU 0 instructions: 620000001 cycles: 194615221 heartbeat IPC: 3.617 cumulative IPC: 3.131 (Simulation time: 04 hr 38 min 07 sec)
Heartbeat CPU 0 instructions: 630000002 cycles: 197591463 heartbeat IPC: 3.36 cumulative IPC: 3.134 (Simulation time: 04 hr 42 min 24 sec)
Heartbeat CPU 0 instructions: 640000004 cycles: 200542586 heartbeat IPC: 3.389 cumulative IPC: 3.138 (Simulation time: 04 hr 46 min 47 sec)
Heartbeat CPU 0 instructions: 650000000 cycles: 203319340 heartbeat IPC: 3.601 cumulative IPC: 3.145 (Simulation time: 04 hr 51 min 00 sec)
Simulation finished CPU 0 instructions: 600000001 cycles: 190782213 cumulative IPC: 3.145 (Simulation time: 04 hr 51 min 00 sec)
Simulation complete CPU 0 instructions: 600000001 cycles: 190782213 cumulative IPC: 3.145 (Simulation time: 04 hr 51 min 00 sec)

ChampSim completed all CPUs

=== Simulation ===
CPU 0 runs traces/400.perlbench-41B.champsimtrace.xz
Region of Interest Statistics

CPU 0 cumulative IPC: 3.145 instructions: 600000001 cycles: 190782213
CPU 0 Branch Prediction Accuracy: 98.9% MPKI: 2.275 Average ROB Occupancy at Mispredict: 90.05
Branch type MPKI
BRANCH_DIRECT_JUMP: 0.0123
BRANCH_INDIRECT: 0.323
BRANCH_CONDITIONAL: 1.73
BRANCH_DIRECT_CALL: 0.0043
BRANCH_INDIRECT_CALL: 0.2
BRANCH_RETURN: 0.00828

LLC TOTAL        ACCESS:     541043 HIT:     497338 MISS:      43705
LLC LOAD         ACCESS:     403669 HIT:     370596 MISS:      33073
LLC RFO          ACCESS:      32582 HIT:      28590 MISS:       3992
LLC PREFETCH     ACCESS:          0 HIT:          0 MISS:          0
LLC WRITE        ACCESS:      85689 HIT:      85605 MISS:         84
LLC TRANSLATION  ACCESS:      19103 HIT:      12547 MISS:       6556
LLC PREFETCH REQUESTED:          0 ISSUED:          0 USEFUL:          0 USELESS:          0
LLC AVERAGE MISS LATENCY: 541.1 cycles
cpu0_DTLB TOTAL        ACCESS:  131065759 HIT:  130366660 MISS:     699099
cpu0_DTLB LOAD         ACCESS:  131065759 HIT:  130366660 MISS:     699099
cpu0_DTLB RFO          ACCESS:          0 HIT:          0 MISS:          0
cpu0_DTLB PREFETCH     ACCESS:          0 HIT:          0 MISS:          0
cpu0_DTLB WRITE        ACCESS:          0 HIT:          0 MISS:          0
cpu0_DTLB TRANSLATION  ACCESS:          0 HIT:          0 MISS:          0
cpu0_DTLB PREFETCH REQUESTED:          0 ISSUED:          0 USEFUL:          0 USELESS:          0
cpu0_DTLB AVERAGE MISS LATENCY: 10.04 cycles
cpu0_ITLB TOTAL        ACCESS:    4849337 HIT:    4788503 MISS:      60834
cpu0_ITLB LOAD         ACCESS:    4849337 HIT:    4788503 MISS:      60834
cpu0_ITLB RFO          ACCESS:          0 HIT:          0 MISS:          0
cpu0_ITLB PREFETCH     ACCESS:          0 HIT:          0 MISS:          0
cpu0_ITLB WRITE        ACCESS:          0 HIT:          0 MISS:          0
cpu0_ITLB TRANSLATION  ACCESS:          0 HIT:          0 MISS:          0
cpu0_ITLB PREFETCH REQUESTED:          0 ISSUED:          0 USEFUL:          0 USELESS:          0
cpu0_ITLB AVERAGE MISS LATENCY: 3.945 cycles
cpu0_L1D TOTAL        ACCESS:  176747394 HIT:  175027006 MISS:    1720388
cpu0_L1D LOAD         ACCESS:   93670697 HIT:   92327854 MISS:    1342843
cpu0_L1D RFO          ACCESS:          0 HIT:          0 MISS:          0
cpu0_L1D PREFETCH     ACCESS:          0 HIT:          0 MISS:          0
cpu0_L1D WRITE        ACCESS:   83052230 HIT:   82698087 MISS:     354143
cpu0_L1D TRANSLATION  ACCESS:      24467 HIT:       1065 MISS:      23402
cpu0_L1D PREFETCH REQUESTED:          0 ISSUED:          0 USEFUL:          0 USELESS:          0
cpu0_L1D AVERAGE MISS LATENCY: 21.19 cycles
cpu0_L1I TOTAL        ACCESS:    5627174 HIT:    4828424 MISS:     798750
cpu0_L1I LOAD         ACCESS:    5627174 HIT:    4828424 MISS:     798750
cpu0_L1I RFO          ACCESS:          0 HIT:          0 MISS:          0
cpu0_L1I PREFETCH     ACCESS:          0 HIT:          0 MISS:          0
cpu0_L1I WRITE        ACCESS:          0 HIT:          0 MISS:          0
cpu0_L1I TRANSLATION  ACCESS:          0 HIT:          0 MISS:          0
cpu0_L1I PREFETCH REQUESTED:          0 ISSUED:          0 USEFUL:          0 USELESS:          0
cpu0_L1I AVERAGE MISS LATENCY: 8.096 cycles
cpu0_L2C TOTAL        ACCESS:    1668478 HIT:    1211330 MISS:     457148
cpu0_L2C LOAD         ACCESS:    1315472 HIT:     911803 MISS:     403669
cpu0_L2C RFO          ACCESS:      89469 HIT:      56887 MISS:      32582
cpu0_L2C PREFETCH     ACCESS:          0 HIT:          0 MISS:          0
cpu0_L2C WRITE        ACCESS:     240219 HIT:     238425 MISS:       1794
cpu0_L2C TRANSLATION  ACCESS:      23318 HIT:       4215 MISS:      19103
cpu0_L2C PREFETCH REQUESTED:          0 ISSUED:          0 USEFUL:          0 USELESS:          0
cpu0_L2C AVERAGE MISS LATENCY: 71.76 cycles
cpu0_STLB TOTAL        ACCESS:     507460 HIT:     484675 MISS:      22785
cpu0_STLB LOAD         ACCESS:     507460 HIT:     484675 MISS:      22785
cpu0_STLB RFO          ACCESS:          0 HIT:          0 MISS:          0
cpu0_STLB PREFETCH     ACCESS:          0 HIT:          0 MISS:          0
cpu0_STLB WRITE        ACCESS:          0 HIT:          0 MISS:          0
cpu0_STLB TRANSLATION  ACCESS:          0 HIT:          0 MISS:          0
cpu0_STLB PREFETCH REQUESTED:          0 ISSUED:          0 USEFUL:          0 USELESS:          0
cpu0_STLB AVERAGE MISS LATENCY: 180.9 cycles

DRAM Statistics

Channel 0 RQ ROW_BUFFER_HIT:      12791
  ROW_BUFFER_MISS:      30830
 AVG DBUS CONGESTED CYCLE: 3.76
WQ ROW_BUFFER_HIT: Channel 0 
  ROW_BUFFER_MISS:        247
  FULL:        435
