WARNING: physical memory size is smaller than virtual memory size.

*** ChampSim Multicore Out-of-Order Simulator ***
Warmup Instructions: 50000000
Simulation Instructions: 600000000
Number of CPUs: 1
Page size: 4096

Off-chip DRAM Size: 4 GiB Channels: 1 Width: 64-bit Data Race: 3200 MT/s
Heartbeat CPU 0 instructions: 10000001 cycles: 2500318 heartbeat IPC: 3.999 cumulative IPC: 3.999 (Simulation time: 00 hr 00 min 37 sec)
Heartbeat CPU 0 instructions: 20000002 cycles: 5037110 heartbeat IPC: 3.942 cumulative IPC: 3.971 (Simulation time: 00 hr 01 min 15 sec)
Heartbeat CPU 0 instructions: 30000002 cycles: 7537110 heartbeat IPC: 4 cumulative IPC: 3.98 (Simulation time: 00 hr 01 min 48 sec)
Heartbeat CPU 0 instructions: 40000002 cycles: 10037110 heartbeat IPC: 4 cumulative IPC: 3.985 (Simulation time: 00 hr 02 min 21 sec)
Heartbeat CPU 0 instructions: 50000002 cycles: 12537110 heartbeat IPC: 4 cumulative IPC: 3.988 (Simulation time: 00 hr 02 min 54 sec)
Warmup finished CPU 0 instructions: 50000002 cycles: 12537111 cumulative IPC: 3.988 (Simulation time: 00 hr 02 min 54 sec)
Warmup complete CPU 0 instructions: 50000002 cycles: 12537111 cumulative IPC: 3.988 (Simulation time: 00 hr 02 min 54 sec)
Heartbeat CPU 0 instructions: 60000000 cycles: 17678454 heartbeat IPC: 1.945 cumulative IPC: 1.945 (Simulation time: 00 hr 03 min 45 sec)
Heartbeat CPU 0 instructions: 70000002 cycles: 22551878 heartbeat IPC: 2.052 cumulative IPC: 1.997 (Simulation time: 00 hr 04 min 34 sec)
Heartbeat CPU 0 instructions: 80000001 cycles: 27893402 heartbeat IPC: 1.872 cumulative IPC: 1.954 (Simulation time: 00 hr 05 min 27 sec)
Heartbeat CPU 0 instructions: 90000001 cycles: 32755003 heartbeat IPC: 2.057 cumulative IPC: 1.978 (Simulation time: 00 hr 06 min 16 sec)
Heartbeat CPU 0 instructions: 100000000 cycles: 37848161 heartbeat IPC: 1.963 cumulative IPC: 1.975 (Simulation time: 00 hr 07 min 07 sec)
Heartbeat CPU 0 instructions: 110000000 cycles: 42717382 heartbeat IPC: 2.054 cumulative IPC: 1.988 (Simulation time: 00 hr 07 min 57 sec)
Heartbeat CPU 0 instructions: 120000001 cycles: 47888757 heartbeat IPC: 1.934 cumulative IPC: 1.98 (Simulation time: 00 hr 08 min 48 sec)
Heartbeat CPU 0 instructions: 130000001 cycles: 53019331 heartbeat IPC: 1.949 cumulative IPC: 1.976 (Simulation time: 00 hr 09 min 36 sec)
Heartbeat CPU 0 instructions: 140000001 cycles: 58296225 heartbeat IPC: 1.895 cumulative IPC: 1.967 (Simulation time: 00 hr 10 min 24 sec)
Heartbeat CPU 0 instructions: 150000001 cycles: 63585959 heartbeat IPC: 1.89 cumulative IPC: 1.959 (Simulation time: 00 hr 11 min 12 sec)
Heartbeat CPU 0 instructions: 160000004 cycles: 68749411 heartbeat IPC: 1.937 cumulative IPC: 1.957 (Simulation time: 00 hr 12 min 00 sec)
Heartbeat CPU 0 instructions: 170000000 cycles: 76449818 heartbeat IPC: 1.299 cumulative IPC: 1.878 (Simulation time: 00 hr 13 min 02 sec)
Heartbeat CPU 0 instructions: 180000004 cycles: 83003459 heartbeat IPC: 1.526 cumulative IPC: 1.845 (Simulation time: 00 hr 14 min 02 sec)
Heartbeat CPU 0 instructions: 190000001 cycles: 89305754 heartbeat IPC: 1.587 cumulative IPC: 1.824 (Simulation time: 00 hr 14 min 58 sec)
Heartbeat CPU 0 instructions: 200000003 cycles: 93792072 heartbeat IPC: 2.229 cumulative IPC: 1.846 (Simulation time: 00 hr 15 min 43 sec)
Heartbeat CPU 0 instructions: 210000001 cycles: 98497789 heartbeat IPC: 2.125 cumulative IPC: 1.861 (Simulation time: 00 hr 16 min 29 sec)
Heartbeat CPU 0 instructions: 220000000 cycles: 103195545 heartbeat IPC: 2.129 cumulative IPC: 1.875 (Simulation time: 00 hr 17 min 15 sec)
Heartbeat CPU 0 instructions: 230000002 cycles: 108069316 heartbeat IPC: 2.052 cumulative IPC: 1.884 (Simulation time: 00 hr 18 min 00 sec)
Heartbeat CPU 0 instructions: 240000000 cycles: 112643536 heartbeat IPC: 2.186 cumulative IPC: 1.898 (Simulation time: 00 hr 18 min 46 sec)
Heartbeat CPU 0 instructions: 250000000 cycles: 117467984 heartbeat IPC: 2.073 cumulative IPC: 1.906 (Simulation time: 00 hr 19 min 32 sec)
Heartbeat CPU 0 instructions: 260000000 cycles: 122164306 heartbeat IPC: 2.129 cumulative IPC: 1.916 (Simulation time: 00 hr 20 min 17 sec)
Heartbeat CPU 0 instructions: 270000002 cycles: 126825990 heartbeat IPC: 2.145 cumulative IPC: 1.925 (Simulation time: 00 hr 21 min 03 sec)
Heartbeat CPU 0 instructions: 280000002 cycles: 131486228 heartbeat IPC: 2.146 cumulative IPC: 1.934 (Simulation time: 00 hr 21 min 50 sec)
Heartbeat CPU 0 instructions: 290000001 cycles: 136650485 heartbeat IPC: 1.936 cumulative IPC: 1.934 (Simulation time: 00 hr 22 min 38 sec)
Heartbeat CPU 0 instructions: 300000003 cycles: 141390514 heartbeat IPC: 2.11 cumulative IPC: 1.94 (Simulation time: 00 hr 23 min 24 sec)
Heartbeat CPU 0 instructions: 310000001 cycles: 146327335 heartbeat IPC: 2.026 cumulative IPC: 1.943 (Simulation time: 00 hr 24 min 10 sec)
Heartbeat CPU 0 instructions: 320000003 cycles: 151265483 heartbeat IPC: 2.025 cumulative IPC: 1.946 (Simulation time: 00 hr 24 min 57 sec)
Heartbeat CPU 0 instructions: 330000003 cycles: 156172813 heartbeat IPC: 2.038 cumulative IPC: 1.949 (Simulation time: 00 hr 25 min 43 sec)
Heartbeat CPU 0 instructions: 340000000 cycles: 162507519 heartbeat IPC: 1.579 cumulative IPC: 1.934 (Simulation time: 00 hr 26 min 39 sec)
Heartbeat CPU 0 instructions: 350000000 cycles: 169291393 heartbeat IPC: 1.474 cumulative IPC: 1.914 (Simulation time: 00 hr 27 min 39 sec)
Heartbeat CPU 0 instructions: 360000004 cycles: 175741777 heartbeat IPC: 1.55 cumulative IPC: 1.899 (Simulation time: 00 hr 28 min 36 sec)
Heartbeat CPU 0 instructions: 370000000 cycles: 179943273 heartbeat IPC: 2.38 cumulative IPC: 1.912 (Simulation time: 00 hr 29 min 20 sec)
Heartbeat CPU 0 instructions: 380000001 cycles: 184661047 heartbeat IPC: 2.12 cumulative IPC: 1.917 (Simulation time: 00 hr 30 min 07 sec)
Heartbeat CPU 0 instructions: 390000002 cycles: 189344056 heartbeat IPC: 2.135 cumulative IPC: 1.923 (Simulation time: 00 hr 30 min 54 sec)
Heartbeat CPU 0 instructions: 400000004 cycles: 194186137 heartbeat IPC: 2.065 cumulative IPC: 1.927 (Simulation time: 00 hr 31 min 41 sec)
Heartbeat CPU 0 instructions: 410000000 cycles: 198678831 heartbeat IPC: 2.226 cumulative IPC: 1.934 (Simulation time: 00 hr 32 min 26 sec)
Heartbeat CPU 0 instructions: 420000000 cycles: 203463728 heartbeat IPC: 2.09 cumulative IPC: 1.938 (Simulation time: 00 hr 33 min 12 sec)
Heartbeat CPU 0 instructions: 430000001 cycles: 207747420 heartbeat IPC: 2.334 cumulative IPC: 1.947 (Simulation time: 00 hr 33 min 58 sec)
Heartbeat CPU 0 instructions: 440000000 cycles: 212826371 heartbeat IPC: 1.969 cumulative IPC: 1.947 (Simulation time: 00 hr 34 min 45 sec)
Heartbeat CPU 0 instructions: 450000002 cycles: 217253452 heartbeat IPC: 2.259 cumulative IPC: 1.954 (Simulation time: 00 hr 35 min 31 sec)
Heartbeat CPU 0 instructions: 460000000 cycles: 221833502 heartbeat IPC: 2.183 cumulative IPC: 1.959 (Simulation time: 00 hr 36 min 16 sec)
Heartbeat CPU 0 instructions: 470000000 cycles: 226623426 heartbeat IPC: 2.088 cumulative IPC: 1.962 (Simulation time: 00 hr 37 min 04 sec)
Heartbeat CPU 0 instructions: 480000003 cycles: 231189715 heartbeat IPC: 2.19 cumulative IPC: 1.967 (Simulation time: 00 hr 37 min 49 sec)
Heartbeat CPU 0 instructions: 490000000 cycles: 235654315 heartbeat IPC: 2.24 cumulative IPC: 1.972 (Simulation time: 00 hr 38 min 34 sec)
Heartbeat CPU 0 instructions: 500000000 cycles: 240533275 heartbeat IPC: 2.05 cumulative IPC: 1.974 (Simulation time: 00 hr 39 min 22 sec)
Heartbeat CPU 0 instructions: 510000003 cycles: 245921757 heartbeat IPC: 1.856 cumulative IPC: 1.971 (Simulation time: 00 hr 40 min 12 sec)
Heartbeat CPU 0 instructions: 520000001 cycles: 250352562 heartbeat IPC: 2.257 cumulative IPC: 1.976 (Simulation time: 00 hr 40 min 58 sec)
Heartbeat CPU 0 instructions: 530000002 cycles: 255287910 heartbeat IPC: 2.026 cumulative IPC: 1.977 (Simulation time: 00 hr 41 min 47 sec)
Heartbeat CPU 0 instructions: 540000000 cycles: 260191870 heartbeat IPC: 2.039 cumulative IPC: 1.979 (Simulation time: 00 hr 42 min 36 sec)
Heartbeat CPU 0 instructions: 550000001 cycles: 264828019 heartbeat IPC: 2.157 cumulative IPC: 1.982 (Simulation time: 00 hr 43 min 27 sec)
Heartbeat CPU 0 instructions: 560000000 cycles: 269728632 heartbeat IPC: 2.041 cumulative IPC: 1.983 (Simulation time: 00 hr 44 min 19 sec)
Heartbeat CPU 0 instructions: 570000004 cycles: 275040871 heartbeat IPC: 1.882 cumulative IPC: 1.981 (Simulation time: 00 hr 45 min 10 sec)
Heartbeat CPU 0 instructions: 580000003 cycles: 281879589 heartbeat IPC: 1.462 cumulative IPC: 1.968 (Simulation time: 00 hr 46 min 15 sec)
Heartbeat CPU 0 instructions: 590000002 cycles: 288981229 heartbeat IPC: 1.408 cumulative IPC: 1.953 (Simulation time: 00 hr 47 min 24 sec)
Heartbeat CPU 0 instructions: 600000000 cycles: 293309422 heartbeat IPC: 2.31 cumulative IPC: 1.959 (Simulation time: 00 hr 48 min 13 sec)
Heartbeat CPU 0 instructions: 610000002 cycles: 297614926 heartbeat IPC: 2.323 cumulative IPC: 1.964 (Simulation time: 00 hr 49 min 02 sec)
Heartbeat CPU 0 instructions: 620000000 cycles: 302313457 heartbeat IPC: 2.128 cumulative IPC: 1.967 (Simulation time: 00 hr 49 min 52 sec)
Heartbeat CPU 0 instructions: 630000002 cycles: 307231916 heartbeat IPC: 2.033 cumulative IPC: 1.968 (Simulation time: 00 hr 50 min 42 sec)
Heartbeat CPU 0 instructions: 640000001 cycles: 312011405 heartbeat IPC: 2.092 cumulative IPC: 1.97 (Simulation time: 00 hr 51 min 34 sec)
Heartbeat CPU 0 instructions: 650000000 cycles: 316501473 heartbeat IPC: 2.227 cumulative IPC: 1.974 (Simulation time: 00 hr 52 min 20 sec)
Simulation finished CPU 0 instructions: 600000001 cycles: 303964364 cumulative IPC: 1.974 (Simulation time: 00 hr 52 min 20 sec)
Simulation complete CPU 0 instructions: 600000001 cycles: 303964364 cumulative IPC: 1.974 (Simulation time: 00 hr 52 min 20 sec)

ChampSim completed all CPUs

=== Simulation ===
CPU 0 runs traces/400.perlbench-41B.champsimtrace.xz
Region of Interest Statistics

CPU 0 cumulative IPC: 1.974 instructions: 600000001 cycles: 303964364
CPU 0 Branch Prediction Accuracy: 93.95% MPKI: 12.5 Average ROB Occupancy at Mispredict: 29.27
Branch type MPKI
BRANCH_DIRECT_JUMP: 0.0123
BRANCH_INDIRECT: 0.323
BRANCH_CONDITIONAL: 12
BRANCH_DIRECT_CALL: 0.0043
BRANCH_INDIRECT_CALL: 0.2
BRANCH_RETURN: 0.00828

LLC TOTAL        ACCESS:     595619 HIT:     544325 MISS:      51294
LLC LOAD         ACCESS:     403723 HIT:     367705 MISS:      36018
LLC RFO          ACCESS:      32583 HIT:      28387 MISS:       4196
LLC PREFETCH     ACCESS:      54298 HIT:      49821 MISS:       4477
LLC WRITE        ACCESS:      85811 HIT:      85794 MISS:         17
LLC TRANSLATION  ACCESS:      19204 HIT:      12618 MISS:       6586
LLC PREFETCH REQUESTED:      54298 ISSUED:      54298 USEFUL:       2784 USELESS:        251
LLC AVERAGE MISS LATENCY: 492.2 cycles
cpu0_DTLB TOTAL        ACCESS:  153697862 HIT:  153021347 MISS:     676515
cpu0_DTLB LOAD         ACCESS:  153697862 HIT:  153021347 MISS:     676515
cpu0_DTLB RFO          ACCESS:          0 HIT:          0 MISS:          0
cpu0_DTLB PREFETCH     ACCESS:          0 HIT:          0 MISS:          0
cpu0_DTLB WRITE        ACCESS:          0 HIT:          0 MISS:          0
cpu0_DTLB TRANSLATION  ACCESS:          0 HIT:          0 MISS:          0
cpu0_DTLB PREFETCH REQUESTED:          0 ISSUED:          0 USEFUL:          0 USELESS:          0
cpu0_DTLB AVERAGE MISS LATENCY: 10.69 cycles
cpu0_ITLB TOTAL        ACCESS:    4839152 HIT:    4781300 MISS:      57852
cpu0_ITLB LOAD         ACCESS:    4839152 HIT:    4781300 MISS:      57852
cpu0_ITLB RFO          ACCESS:          0 HIT:          0 MISS:          0
cpu0_ITLB PREFETCH     ACCESS:          0 HIT:          0 MISS:          0
cpu0_ITLB WRITE        ACCESS:          0 HIT:          0 MISS:          0
cpu0_ITLB TRANSLATION  ACCESS:          0 HIT:          0 MISS:          0
cpu0_ITLB PREFETCH REQUESTED:          0 ISSUED:          0 USEFUL:          0 USELESS:          0
cpu0_ITLB AVERAGE MISS LATENCY: 4.417 cycles
cpu0_L1D TOTAL        ACCESS:  200330031 HIT:  198650076 MISS:    1679955
cpu0_L1D LOAD         ACCESS:  117087017 HIT:  115774286 MISS:    1312731
cpu0_L1D RFO          ACCESS:          0 HIT:          0 MISS:          0
cpu0_L1D PREFETCH     ACCESS:          0 HIT:          0 MISS:          0
cpu0_L1D WRITE        ACCESS:   83218546 HIT:   82874746 MISS:     343800
cpu0_L1D TRANSLATION  ACCESS:      24468 HIT:       1044 MISS:      23424
cpu0_L1D PREFETCH REQUESTED:          0 ISSUED:          0 USEFUL:          0 USELESS:          0
cpu0_L1D AVERAGE MISS LATENCY: 21.9 cycles
cpu0_L1I TOTAL        ACCESS:    5581427 HIT:    4819894 MISS:     761533
cpu0_L1I LOAD         ACCESS:    5581427 HIT:    4819894 MISS:     761533
cpu0_L1I RFO          ACCESS:          0 HIT:          0 MISS:          0
cpu0_L1I PREFETCH     ACCESS:          0 HIT:          0 MISS:          0
cpu0_L1I WRITE        ACCESS:          0 HIT:          0 MISS:          0
cpu0_L1I TRANSLATION  ACCESS:          0 HIT:          0 MISS:          0
cpu0_L1I PREFETCH REQUESTED:          0 ISSUED:          0 USEFUL:          0 USELESS:          0
cpu0_L1I AVERAGE MISS LATENCY: 8.726 cycles
cpu0_L2C TOTAL        ACCESS:    1668151 HIT:    1210833 MISS:     457318
cpu0_L2C LOAD         ACCESS:    1317198 HIT:     913475 MISS:     403723
cpu0_L2C RFO          ACCESS:      88568 HIT:      55985 MISS:      32583
cpu0_L2C PREFETCH     ACCESS:          0 HIT:          0 MISS:          0
cpu0_L2C WRITE        ACCESS:     239041 HIT:     237233 MISS:       1808
cpu0_L2C TRANSLATION  ACCESS:      23344 HIT:       4140 MISS:      19204
cpu0_L2C PREFETCH REQUESTED:          0 ISSUED:          0 USEFUL:          0 USELESS:          0
cpu0_L2C AVERAGE MISS LATENCY: 69.16 cycles
cpu0_STLB TOTAL        ACCESS:     505092 HIT:     482303 MISS:      22789
cpu0_STLB LOAD         ACCESS:     505092 HIT:     482303 MISS:      22789
cpu0_STLB RFO          ACCESS:          0 HIT:          0 MISS:          0
cpu0_STLB PREFETCH     ACCESS:          0 HIT:          0 MISS:          0
cpu0_STLB WRITE        ACCESS:          0 HIT:          0 MISS:          0
cpu0_STLB TRANSLATION  ACCESS:          0 HIT:          0 MISS:          0
cpu0_STLB PREFETCH REQUESTED:          0 ISSUED:          0 USEFUL:          0 USELESS:          0
cpu0_STLB AVERAGE MISS LATENCY: 183 cycles

DRAM Statistics

Channel 0 RQ ROW_BUFFER_HIT:      13936
  ROW_BUFFER_MISS:      36879
 AVG DBUS CONGESTED CYCLE: 3.722
WQ ROW_BUFFER_HIT: Channel 0 
  ROW_BUFFER_MISS:        438
  FULL:        932
