WARNING: physical memory size is smaller than virtual memory size.

*** ChampSim Multicore Out-of-Order Simulator ***
Warmup Instructions: 50000000
Simulation Instructions: 600000000
Number of CPUs: 1
Page size: 4096

Off-chip DRAM Size: 4 GiB Channels: 1 Width: 64-bit Data Race: 3200 MT/s
Heartbeat CPU 0 instructions: 10000001 cycles: 2500318 heartbeat IPC: 3.999 cumulative IPC: 3.999 (Simulation time: 00 hr 00 min 55 sec)
Heartbeat CPU 0 instructions: 20000002 cycles: 5037121 heartbeat IPC: 3.942 cumulative IPC: 3.971 (Simulation time: 00 hr 02 min 08 sec)
Heartbeat CPU 0 instructions: 30000002 cycles: 7537121 heartbeat IPC: 4 cumulative IPC: 3.98 (Simulation time: 00 hr 03 min 37 sec)
Heartbeat CPU 0 instructions: 40000002 cycles: 10037121 heartbeat IPC: 4 cumulative IPC: 3.985 (Simulation time: 00 hr 05 min 28 sec)
Heartbeat CPU 0 instructions: 50000002 cycles: 12537121 heartbeat IPC: 4 cumulative IPC: 3.988 (Simulation time: 00 hr 07 min 38 sec)
Warmup finished CPU 0 instructions: 50000002 cycles: 12537122 cumulative IPC: 3.988 (Simulation time: 00 hr 07 min 38 sec)
Warmup complete CPU 0 instructions: 50000002 cycles: 12537122 cumulative IPC: 3.988 (Simulation time: 00 hr 07 min 38 sec)
Heartbeat CPU 0 instructions: 60000000 cycles: 17116595 heartbeat IPC: 2.184 cumulative IPC: 2.184 (Simulation time: 00 hr 11 min 04 sec)
Heartbeat CPU 0 instructions: 70000004 cycles: 21361166 heartbeat IPC: 2.356 cumulative IPC: 2.267 (Simulation time: 00 hr 14 min 18 sec)
Heartbeat CPU 0 instructions: 80000001 cycles: 25916832 heartbeat IPC: 2.195 cumulative IPC: 2.242 (Simulation time: 00 hr 17 min 37 sec)
Heartbeat CPU 0 instructions: 90000001 cycles: 30007573 heartbeat IPC: 2.445 cumulative IPC: 2.29 (Simulation time: 00 hr 20 min 50 sec)
Heartbeat CPU 0 instructions: 100000000 cycles: 34023689 heartbeat IPC: 2.49 cumulative IPC: 2.327 (Simulation time: 00 hr 23 min 57 sec)
Heartbeat CPU 0 instructions: 110000000 cycles: 38227610 heartbeat IPC: 2.379 cumulative IPC: 2.335 (Simulation time: 00 hr 27 min 08 sec)
Heartbeat CPU 0 instructions: 120000001 cycles: 42206862 heartbeat IPC: 2.513 cumulative IPC: 2.359 (Simulation time: 00 hr 30 min 14 sec)
Heartbeat CPU 0 instructions: 130000001 cycles: 45904287 heartbeat IPC: 2.705 cumulative IPC: 2.398 (Simulation time: 00 hr 33 min 18 sec)
Heartbeat CPU 0 instructions: 140000001 cycles: 50024441 heartbeat IPC: 2.427 cumulative IPC: 2.401 (Simulation time: 00 hr 36 min 25 sec)
Heartbeat CPU 0 instructions: 150000001 cycles: 54183279 heartbeat IPC: 2.405 cumulative IPC: 2.401 (Simulation time: 00 hr 39 min 35 sec)
Heartbeat CPU 0 instructions: 160000004 cycles: 58559130 heartbeat IPC: 2.285 cumulative IPC: 2.39 (Simulation time: 00 hr 42 min 49 sec)
Heartbeat CPU 0 instructions: 170000000 cycles: 65441987 heartbeat IPC: 1.453 cumulative IPC: 2.268 (Simulation time: 00 hr 47 min 18 sec)
Heartbeat CPU 0 instructions: 180000004 cycles: 71979378 heartbeat IPC: 1.53 cumulative IPC: 2.187 (Simulation time: 00 hr 51 min 43 sec)
Heartbeat CPU 0 instructions: 190000001 cycles: 77884459 heartbeat IPC: 1.693 cumulative IPC: 2.142 (Simulation time: 00 hr 55 min 50 sec)
Heartbeat CPU 0 instructions: 200000004 cycles: 81394859 heartbeat IPC: 2.849 cumulative IPC: 2.178 (Simulation time: 00 hr 58 min 44 sec)
Heartbeat CPU 0 instructions: 210000001 cycles: 85106655 heartbeat IPC: 2.694 cumulative IPC: 2.205 (Simulation time: 01 hr 01 min 47 sec)
Heartbeat CPU 0 instructions: 220000000 cycles: 88940643 heartbeat IPC: 2.608 cumulative IPC: 2.225 (Simulation time: 01 hr 04 min 50 sec)
Heartbeat CPU 0 instructions: 230000002 cycles: 93197581 heartbeat IPC: 2.349 cumulative IPC: 2.232 (Simulation time: 01 hr 07 min 54 sec)
Heartbeat CPU 0 instructions: 240000000 cycles: 97140347 heartbeat IPC: 2.536 cumulative IPC: 2.246 (Simulation time: 01 hr 11 min 00 sec)
Heartbeat CPU 0 instructions: 250000000 cycles: 101145072 heartbeat IPC: 2.497 cumulative IPC: 2.257 (Simulation time: 01 hr 14 min 01 sec)
Heartbeat CPU 0 instructions: 260000000 cycles: 105016570 heartbeat IPC: 2.583 cumulative IPC: 2.271 (Simulation time: 01 hr 17 min 09 sec)
Heartbeat CPU 0 instructions: 270000002 cycles: 108661256 heartbeat IPC: 2.744 cumulative IPC: 2.289 (Simulation time: 01 hr 20 min 11 sec)
Heartbeat CPU 0 instructions: 280000002 cycles: 112598761 heartbeat IPC: 2.54 cumulative IPC: 2.299 (Simulation time: 01 hr 23 min 13 sec)
Heartbeat CPU 0 instructions: 290000001 cycles: 116305137 heartbeat IPC: 2.698 cumulative IPC: 2.313 (Simulation time: 01 hr 26 min 11 sec)
Heartbeat CPU 0 instructions: 300000003 cycles: 119841080 heartbeat IPC: 2.828 cumulative IPC: 2.33 (Simulation time: 01 hr 29 min 06 sec)
Heartbeat CPU 0 instructions: 310000001 cycles: 123639889 heartbeat IPC: 2.632 cumulative IPC: 2.34 (Simulation time: 01 hr 32 min 08 sec)
Heartbeat CPU 0 instructions: 320000003 cycles: 127468847 heartbeat IPC: 2.612 cumulative IPC: 2.349 (Simulation time: 01 hr 35 min 09 sec)
Heartbeat CPU 0 instructions: 330000003 cycles: 131514338 heartbeat IPC: 2.472 cumulative IPC: 2.353 (Simulation time: 01 hr 38 min 18 sec)
Heartbeat CPU 0 instructions: 340000000 cycles: 137622533 heartbeat IPC: 1.637 cumulative IPC: 2.318 (Simulation time: 01 hr 42 min 20 sec)
Heartbeat CPU 0 instructions: 350000000 cycles: 144400915 heartbeat IPC: 1.475 cumulative IPC: 2.275 (Simulation time: 01 hr 46 min 57 sec)
Heartbeat CPU 0 instructions: 360000004 cycles: 150428571 heartbeat IPC: 1.659 cumulative IPC: 2.248 (Simulation time: 01 hr 50 min 58 sec)
Heartbeat CPU 0 instructions: 370000000 cycles: 153672076 heartbeat IPC: 3.083 cumulative IPC: 2.267 (Simulation time: 01 hr 53 min 43 sec)
Heartbeat CPU 0 instructions: 380000001 cycles: 156902290 heartbeat IPC: 3.096 cumulative IPC: 2.286 (Simulation time: 01 hr 56 min 31 sec)
Heartbeat CPU 0 instructions: 390000004 cycles: 160508616 heartbeat IPC: 2.773 cumulative IPC: 2.298 (Simulation time: 01 hr 59 min 32 sec)
Heartbeat CPU 0 instructions: 400000004 cycles: 164231964 heartbeat IPC: 2.686 cumulative IPC: 2.307 (Simulation time: 02 hr 02 min 15 sec)
Heartbeat CPU 0 instructions: 410000001 cycles: 167662972 heartbeat IPC: 2.915 cumulative IPC: 2.321 (Simulation time: 02 hr 04 min 41 sec)
Heartbeat CPU 0 instructions: 420000003 cycles: 171362626 heartbeat IPC: 2.703 cumulative IPC: 2.33 (Simulation time: 02 hr 07 min 14 sec)
Heartbeat CPU 0 instructions: 430000001 cycles: 174854178 heartbeat IPC: 2.864 cumulative IPC: 2.341 (Simulation time: 02 hr 09 min 44 sec)
Heartbeat CPU 0 instructions: 440000004 cycles: 178667674 heartbeat IPC: 2.622 cumulative IPC: 2.348 (Simulation time: 02 hr 12 min 20 sec)
Heartbeat CPU 0 instructions: 450000002 cycles: 182168726 heartbeat IPC: 2.856 cumulative IPC: 2.358 (Simulation time: 02 hr 14 min 50 sec)
Heartbeat CPU 0 instructions: 460000000 cycles: 185632339 heartbeat IPC: 2.887 cumulative IPC: 2.369 (Simulation time: 02 hr 17 min 18 sec)
Heartbeat CPU 0 instructions: 470000000 cycles: 188929872 heartbeat IPC: 3.033 cumulative IPC: 2.381 (Simulation time: 02 hr 19 min 44 sec)
Heartbeat CPU 0 instructions: 480000003 cycles: 192544310 heartbeat IPC: 2.767 cumulative IPC: 2.389 (Simulation time: 02 hr 22 min 15 sec)
Heartbeat CPU 0 instructions: 490000000 cycles: 196040446 heartbeat IPC: 2.86 cumulative IPC: 2.398 (Simulation time: 02 hr 24 min 44 sec)
Heartbeat CPU 0 instructions: 500000000 cycles: 199601868 heartbeat IPC: 2.808 cumulative IPC: 2.406 (Simulation time: 02 hr 27 min 15 sec)
Heartbeat CPU 0 instructions: 510000003 cycles: 203032162 heartbeat IPC: 2.915 cumulative IPC: 2.415 (Simulation time: 02 hr 29 min 42 sec)
Heartbeat CPU 0 instructions: 520000001 cycles: 206207248 heartbeat IPC: 3.15 cumulative IPC: 2.427 (Simulation time: 02 hr 32 min 07 sec)
Heartbeat CPU 0 instructions: 530000002 cycles: 209689029 heartbeat IPC: 2.872 cumulative IPC: 2.435 (Simulation time: 02 hr 34 min 36 sec)
Heartbeat CPU 0 instructions: 540000000 cycles: 213025200 heartbeat IPC: 2.997 cumulative IPC: 2.444 (Simulation time: 02 hr 37 min 03 sec)
Heartbeat CPU 0 instructions: 550000001 cycles: 216562905 heartbeat IPC: 2.827 cumulative IPC: 2.451 (Simulation time: 02 hr 39 min 33 sec)
Heartbeat CPU 0 instructions: 560000000 cycles: 220238622 heartbeat IPC: 2.721 cumulative IPC: 2.455 (Simulation time: 02 hr 42 min 06 sec)
Heartbeat CPU 0 instructions: 570000004 cycles: 224838949 heartbeat IPC: 2.174 cumulative IPC: 2.449 (Simulation time: 02 hr 45 min 01 sec)
Heartbeat CPU 0 instructions: 580000003 cycles: 231568600 heartbeat IPC: 1.486 cumulative IPC: 2.42 (Simulation time: 02 hr 48 min 47 sec)
Heartbeat CPU 0 instructions: 590000002 cycles: 238863507 heartbeat IPC: 1.371 cumulative IPC: 2.386 (Simulation time: 02 hr 52 min 44 sec)
Heartbeat CPU 0 instructions: 600000000 cycles: 242380564 heartbeat IPC: 2.843 cumulative IPC: 2.393 (Simulation time: 02 hr 55 min 14 sec)
Heartbeat CPU 0 instructions: 610000000 cycles: 246062576 heartbeat IPC: 2.716 cumulative IPC: 2.398 (Simulation time: 02 hr 57 min 46 sec)
Heartbeat CPU 0 instructions: 620000001 cycles: 249399091 heartbeat IPC: 2.997 cumulative IPC: 2.406 (Simulation time: 03 hr 00 min 16 sec)
Heartbeat CPU 0 instructions: 630000002 cycles: 253525791 heartbeat IPC: 2.423 cumulative IPC: 2.407 (Simulation time: 03 hr 02 min 58 sec)
Heartbeat CPU 0 instructions: 640000001 cycles: 257361693 heartbeat IPC: 2.607 cumulative IPC: 2.41 (Simulation time: 03 hr 05 min 31 sec)
Heartbeat CPU 0 instructions: 650000000 cycles: 261057421 heartbeat IPC: 2.706 cumulative IPC: 2.414 (Simulation time: 03 hr 08 min 03 sec)
Simulation finished CPU 0 instructions: 600000001 cycles: 248520301 cumulative IPC: 2.414 (Simulation time: 03 hr 08 min 03 sec)
Simulation complete CPU 0 instructions: 600000001 cycles: 248520301 cumulative IPC: 2.414 (Simulation time: 03 hr 08 min 03 sec)

ChampSim completed all CPUs

=== Simulation ===
CPU 0 runs traces/400.perlbench-41B.champsimtrace.xz
Region of Interest Statistics

CPU 0 cumulative IPC: 2.414 instructions: 600000001 cycles: 248520301
CPU 0 Branch Prediction Accuracy: 96.56% MPKI: 7.112 Average ROB Occupancy at Mispredict: 46.63
Branch type MPKI
BRANCH_DIRECT_JUMP: 0.0123
BRANCH_INDIRECT: 0.323
BRANCH_CONDITIONAL: 6.56
BRANCH_DIRECT_CALL: 0.0043
BRANCH_INDIRECT_CALL: 0.2
BRANCH_RETURN: 0.00828

LLC TOTAL        ACCESS:     937716 HIT:     850989 MISS:      86727
LLC LOAD         ACCESS:     400537 HIT:     367085 MISS:      33452
LLC RFO          ACCESS:      32462 HIT:      28230 MISS:       4232
LLC PREFETCH     ACCESS:     400537 HIT:     358387 MISS:      42150
LLC WRITE        ACCESS:      85098 HIT:      85024 MISS:         74
LLC TRANSLATION  ACCESS:      19082 HIT:      12263 MISS:       6819
LLC PREFETCH REQUESTED:     400537 ISSUED:     400537 USEFUL:      12481 USELESS:      16090
LLC AVERAGE MISS LATENCY: 496.1 cycles
cpu0_DTLB TOTAL        ACCESS:  141910400 HIT:  141225337 MISS:     685063
cpu0_DTLB LOAD         ACCESS:  141910400 HIT:  141225337 MISS:     685063
cpu0_DTLB RFO          ACCESS:          0 HIT:          0 MISS:          0
cpu0_DTLB PREFETCH     ACCESS:          0 HIT:          0 MISS:          0
cpu0_DTLB WRITE        ACCESS:          0 HIT:          0 MISS:          0
cpu0_DTLB TRANSLATION  ACCESS:          0 HIT:          0 MISS:          0
cpu0_DTLB PREFETCH REQUESTED:          0 ISSUED:          0 USEFUL:          0 USELESS:          0
cpu0_DTLB AVERAGE MISS LATENCY: 10.9 cycles
cpu0_ITLB TOTAL        ACCESS:    4857506 HIT:    4804356 MISS:      53150
cpu0_ITLB LOAD         ACCESS:    4857506 HIT:    4804356 MISS:      53150
cpu0_ITLB RFO          ACCESS:          0 HIT:          0 MISS:          0
cpu0_ITLB PREFETCH     ACCESS:          0 HIT:          0 MISS:          0
cpu0_ITLB WRITE        ACCESS:          0 HIT:          0 MISS:          0
cpu0_ITLB TRANSLATION  ACCESS:          0 HIT:          0 MISS:          0
cpu0_ITLB PREFETCH REQUESTED:          0 ISSUED:          0 USEFUL:          0 USELESS:          0
cpu0_ITLB AVERAGE MISS LATENCY: 5.251 cycles
cpu0_L1D TOTAL        ACCESS:  188598999 HIT:  186920360 MISS:    1678639
cpu0_L1D LOAD         ACCESS:  105232161 HIT:  103917970 MISS:    1314191
cpu0_L1D RFO          ACCESS:          0 HIT:          0 MISS:          0
cpu0_L1D PREFETCH     ACCESS:          0 HIT:          0 MISS:          0
cpu0_L1D WRITE        ACCESS:   83342378 HIT:   83001329 MISS:     341049
cpu0_L1D TRANSLATION  ACCESS:      24460 HIT:       1061 MISS:      23399
cpu0_L1D PREFETCH REQUESTED:          0 ISSUED:          0 USEFUL:          0 USELESS:          0
cpu0_L1D AVERAGE MISS LATENCY: 22.85 cycles
cpu0_L1I TOTAL        ACCESS:    5595489 HIT:    4852162 MISS:     743327
cpu0_L1I LOAD         ACCESS:    5595489 HIT:    4852162 MISS:     743327
cpu0_L1I RFO          ACCESS:          0 HIT:          0 MISS:          0
cpu0_L1I PREFETCH     ACCESS:          0 HIT:          0 MISS:          0
cpu0_L1I WRITE        ACCESS:          0 HIT:          0 MISS:          0
cpu0_L1I TRANSLATION  ACCESS:          0 HIT:          0 MISS:          0
cpu0_L1I PREFETCH REQUESTED:          0 ISSUED:          0 USEFUL:          0 USELESS:          0
cpu0_L1I AVERAGE MISS LATENCY: 9.004 cycles
cpu0_L2C TOTAL        ACCESS:    1666247 HIT:    1212405 MISS:     453842
cpu0_L2C LOAD         ACCESS:    1316083 HIT:     915546 MISS:     400537
cpu0_L2C RFO          ACCESS:      88287 HIT:      55825 MISS:      32462
cpu0_L2C PREFETCH     ACCESS:          0 HIT:          0 MISS:          0
cpu0_L2C WRITE        ACCESS:     238546 HIT:     236785 MISS:       1761
cpu0_L2C TRANSLATION  ACCESS:      23331 HIT:       4249 MISS:      19082
cpu0_L2C PREFETCH REQUESTED:          0 ISSUED:          0 USEFUL:          0 USELESS:          0
cpu0_L2C AVERAGE MISS LATENCY: 73.73 cycles
cpu0_STLB TOTAL        ACCESS:     506666 HIT:     483872 MISS:      22794
cpu0_STLB LOAD         ACCESS:     506666 HIT:     483872 MISS:      22794
cpu0_STLB RFO          ACCESS:          0 HIT:          0 MISS:          0
cpu0_STLB PREFETCH     ACCESS:          0 HIT:          0 MISS:          0
cpu0_STLB WRITE        ACCESS:          0 HIT:          0 MISS:          0
cpu0_STLB TRANSLATION  ACCESS:          0 HIT:          0 MISS:          0
cpu0_STLB PREFETCH REQUESTED:          0 ISSUED:          0 USEFUL:          0 USELESS:          0
cpu0_STLB AVERAGE MISS LATENCY: 196.8 cycles

DRAM Statistics

Channel 0 RQ ROW_BUFFER_HIT:      18055
  ROW_BUFFER_MISS:      56551
 AVG DBUS CONGESTED CYCLE: 3.81
WQ ROW_BUFFER_HIT: Channel 0 
  ROW_BUFFER_MISS:       1072
  FULL:       1644
