WARNING: physical memory size is smaller than virtual memory size.

*** ChampSim Multicore Out-of-Order Simulator ***
Warmup Instructions: 50000000
Simulation Instructions: 600000000
Number of CPUs: 1
Page size: 4096

CPU 0 Tage branch predictor
Off-chip DRAM Size: 4 GiB Channels: 1 Width: 64-bit Data Race: 3200 MT/s
Heartbeat CPU 0 instructions: 10000000 cycles: 2500061 heartbeat IPC: 4 cumulative IPC: 4 (Simulation time: 00 hr 01 min 16 sec)
Heartbeat CPU 0 instructions: 20000000 cycles: 5000061 heartbeat IPC: 4 cumulative IPC: 4 (Simulation time: 00 hr 03 min 07 sec)
Heartbeat CPU 0 instructions: 30000000 cycles: 7500061 heartbeat IPC: 4 cumulative IPC: 4 (Simulation time: 00 hr 05 min 21 sec)
Heartbeat CPU 0 instructions: 40000000 cycles: 10000061 heartbeat IPC: 4 cumulative IPC: 4 (Simulation time: 00 hr 08 min 00 sec)
Heartbeat CPU 0 instructions: 50000000 cycles: 12500061 heartbeat IPC: 4 cumulative IPC: 4 (Simulation time: 00 hr 10 min 48 sec)
Warmup finished CPU 0 instructions: 50000000 cycles: 12500062 cumulative IPC: 4 (Simulation time: 00 hr 10 min 48 sec)
Warmup complete CPU 0 instructions: 50000000 cycles: 12500062 cumulative IPC: 4 (Simulation time: 00 hr 10 min 48 sec)
Heartbeat CPU 0 instructions: 60000004 cycles: 15503677 heartbeat IPC: 3.329 cumulative IPC: 3.329 (Simulation time: 00 hr 14 min 00 sec)
Heartbeat CPU 0 instructions: 70000003 cycles: 18382317 heartbeat IPC: 3.474 cumulative IPC: 3.4 (Simulation time: 00 hr 17 min 15 sec)
Heartbeat CPU 0 instructions: 80000002 cycles: 21404747 heartbeat IPC: 3.309 cumulative IPC: 3.369 (Simulation time: 00 hr 20 min 36 sec)
Heartbeat CPU 0 instructions: 90000000 cycles: 24127135 heartbeat IPC: 3.673 cumulative IPC: 3.44 (Simulation time: 00 hr 23 min 43 sec)
Heartbeat CPU 0 instructions: 100000003 cycles: 26893697 heartbeat IPC: 3.615 cumulative IPC: 3.474 (Simulation time: 00 hr 26 min 52 sec)
Heartbeat CPU 0 instructions: 110000001 cycles: 29799971 heartbeat IPC: 3.441 cumulative IPC: 3.468 (Simulation time: 00 hr 30 min 11 sec)
Heartbeat CPU 0 instructions: 120000001 cycles: 32524189 heartbeat IPC: 3.671 cumulative IPC: 3.496 (Simulation time: 00 hr 33 min 18 sec)
Heartbeat CPU 0 instructions: 130000003 cycles: 35426960 heartbeat IPC: 3.445 cumulative IPC: 3.489 (Simulation time: 00 hr 36 min 28 sec)
Heartbeat CPU 0 instructions: 140000002 cycles: 38265022 heartbeat IPC: 3.524 cumulative IPC: 3.493 (Simulation time: 00 hr 39 min 43 sec)
Heartbeat CPU 0 instructions: 150000001 cycles: 41038933 heartbeat IPC: 3.605 cumulative IPC: 3.504 (Simulation time: 00 hr 42 min 50 sec)
Heartbeat CPU 0 instructions: 160000000 cycles: 43953820 heartbeat IPC: 3.431 cumulative IPC: 3.497 (Simulation time: 00 hr 45 min 57 sec)
Heartbeat CPU 0 instructions: 170000001 cycles: 46884845 heartbeat IPC: 3.412 cumulative IPC: 3.49 (Simulation time: 00 hr 49 min 10 sec)
Heartbeat CPU 0 instructions: 180000000 cycles: 49682531 heartbeat IPC: 3.574 cumulative IPC: 3.496 (Simulation time: 00 hr 52 min 22 sec)
Heartbeat CPU 0 instructions: 190000002 cycles: 52390539 heartbeat IPC: 3.693 cumulative IPC: 3.51 (Simulation time: 00 hr 55 min 42 sec)
Heartbeat CPU 0 instructions: 200000002 cycles: 55219937 heartbeat IPC: 3.534 cumulative IPC: 3.511 (Simulation time: 00 hr 58 min 54 sec)
Heartbeat CPU 0 instructions: 210000000 cycles: 58119126 heartbeat IPC: 3.449 cumulative IPC: 3.507 (Simulation time: 01 hr 02 min 12 sec)
Heartbeat CPU 0 instructions: 220000001 cycles: 60883566 heartbeat IPC: 3.617 cumulative IPC: 3.514 (Simulation time: 01 hr 05 min 33 sec)
Heartbeat CPU 0 instructions: 230000002 cycles: 63776820 heartbeat IPC: 3.456 cumulative IPC: 3.51 (Simulation time: 01 hr 08 min 45 sec)
Heartbeat CPU 0 instructions: 240000004 cycles: 66737011 heartbeat IPC: 3.378 cumulative IPC: 3.503 (Simulation time: 01 hr 11 min 59 sec)
Heartbeat CPU 0 instructions: 250000003 cycles: 69643379 heartbeat IPC: 3.441 cumulative IPC: 3.5 (Simulation time: 01 hr 15 min 13 sec)
Heartbeat CPU 0 instructions: 260000001 cycles: 72434967 heartbeat IPC: 3.582 cumulative IPC: 3.504 (Simulation time: 01 hr 18 min 28 sec)
Heartbeat CPU 0 instructions: 270000002 cycles: 77840334 heartbeat IPC: 1.85 cumulative IPC: 3.367 (Simulation time: 01 hr 22 min 48 sec)
Heartbeat CPU 0 instructions: 280000000 cycles: 85710761 heartbeat IPC: 1.271 cumulative IPC: 3.142 (Simulation time: 01 hr 28 min 26 sec)
Heartbeat CPU 0 instructions: 290000000 cycles: 92140028 heartbeat IPC: 1.555 cumulative IPC: 3.014 (Simulation time: 01 hr 33 min 27 sec)
Heartbeat CPU 0 instructions: 300000003 cycles: 97072634 heartbeat IPC: 2.027 cumulative IPC: 2.956 (Simulation time: 01 hr 38 min 01 sec)
Heartbeat CPU 0 instructions: 310000001 cycles: 104437596 heartbeat IPC: 1.358 cumulative IPC: 2.828 (Simulation time: 01 hr 43 min 38 sec)
Heartbeat CPU 0 instructions: 320000004 cycles: 108077682 heartbeat IPC: 2.747 cumulative IPC: 2.825 (Simulation time: 01 hr 47 min 19 sec)
Heartbeat CPU 0 instructions: 330000000 cycles: 111188844 heartbeat IPC: 3.214 cumulative IPC: 2.837 (Simulation time: 01 hr 50 min 48 sec)
Heartbeat CPU 0 instructions: 340000001 cycles: 113952867 heartbeat IPC: 3.618 cumulative IPC: 2.858 (Simulation time: 01 hr 54 min 02 sec)
Heartbeat CPU 0 instructions: 350000000 cycles: 116865463 heartbeat IPC: 3.433 cumulative IPC: 2.875 (Simulation time: 01 hr 57 min 19 sec)
Heartbeat CPU 0 instructions: 360000004 cycles: 119612595 heartbeat IPC: 3.64 cumulative IPC: 2.894 (Simulation time: 02 hr 00 min 26 sec)
Heartbeat CPU 0 instructions: 370000001 cycles: 122371780 heartbeat IPC: 3.624 cumulative IPC: 2.912 (Simulation time: 02 hr 03 min 08 sec)
Heartbeat CPU 0 instructions: 380000004 cycles: 125171624 heartbeat IPC: 3.572 cumulative IPC: 2.929 (Simulation time: 02 hr 05 min 51 sec)
Heartbeat CPU 0 instructions: 390000002 cycles: 127975253 heartbeat IPC: 3.567 cumulative IPC: 2.944 (Simulation time: 02 hr 08 min 36 sec)
Heartbeat CPU 0 instructions: 400000000 cycles: 130845297 heartbeat IPC: 3.484 cumulative IPC: 2.957 (Simulation time: 02 hr 11 min 22 sec)
Heartbeat CPU 0 instructions: 410000000 cycles: 134918685 heartbeat IPC: 2.455 cumulative IPC: 2.941 (Simulation time: 02 hr 14 min 40 sec)
Heartbeat CPU 0 instructions: 420000003 cycles: 139917891 heartbeat IPC: 2 cumulative IPC: 2.904 (Simulation time: 02 hr 18 min 20 sec)
Heartbeat CPU 0 instructions: 430000000 cycles: 144311666 heartbeat IPC: 2.276 cumulative IPC: 2.883 (Simulation time: 02 hr 21 min 54 sec)
Heartbeat CPU 0 instructions: 440000004 cycles: 148511581 heartbeat IPC: 2.381 cumulative IPC: 2.867 (Simulation time: 02 hr 25 min 19 sec)
Heartbeat CPU 0 instructions: 450000001 cycles: 152709251 heartbeat IPC: 2.382 cumulative IPC: 2.853 (Simulation time: 02 hr 28 min 45 sec)
Heartbeat CPU 0 instructions: 460000002 cycles: 158083129 heartbeat IPC: 1.861 cumulative IPC: 2.816 (Simulation time: 02 hr 32 min 41 sec)
Heartbeat CPU 0 instructions: 470000003 cycles: 162660105 heartbeat IPC: 2.185 cumulative IPC: 2.797 (Simulation time: 02 hr 36 min 13 sec)
Heartbeat CPU 0 instructions: 480000000 cycles: 165624543 heartbeat IPC: 3.373 cumulative IPC: 2.808 (Simulation time: 02 hr 39 min 01 sec)
Heartbeat CPU 0 instructions: 490000001 cycles: 168593980 heartbeat IPC: 3.368 cumulative IPC: 2.819 (Simulation time: 02 hr 41 min 48 sec)
Heartbeat CPU 0 instructions: 500000002 cycles: 171506265 heartbeat IPC: 3.434 cumulative IPC: 2.83 (Simulation time: 02 hr 44 min 35 sec)
Heartbeat CPU 0 instructions: 510000000 cycles: 174439774 heartbeat IPC: 3.409 cumulative IPC: 2.841 (Simulation time: 02 hr 47 min 26 sec)
Heartbeat CPU 0 instructions: 520000000 cycles: 177390702 heartbeat IPC: 3.389 cumulative IPC: 2.85 (Simulation time: 02 hr 50 min 16 sec)
Heartbeat CPU 0 instructions: 530000001 cycles: 182520530 heartbeat IPC: 1.949 cumulative IPC: 2.823 (Simulation time: 02 hr 54 min 02 sec)
Heartbeat CPU 0 instructions: 540000000 cycles: 187620088 heartbeat IPC: 1.961 cumulative IPC: 2.798 (Simulation time: 02 hr 57 min 52 sec)
Heartbeat CPU 0 instructions: 550000004 cycles: 193110201 heartbeat IPC: 1.821 cumulative IPC: 2.768 (Simulation time: 03 hr 01 min 46 sec)
Heartbeat CPU 0 instructions: 560000004 cycles: 196287750 heartbeat IPC: 3.147 cumulative IPC: 2.775 (Simulation time: 03 hr 04 min 35 sec)
Heartbeat CPU 0 instructions: 570000002 cycles: 199067812 heartbeat IPC: 3.597 cumulative IPC: 2.787 (Simulation time: 03 hr 07 min 19 sec)
Heartbeat CPU 0 instructions: 580000000 cycles: 201915173 heartbeat IPC: 3.512 cumulative IPC: 2.798 (Simulation time: 03 hr 09 min 53 sec)
Heartbeat CPU 0 instructions: 590000001 cycles: 204770632 heartbeat IPC: 3.502 cumulative IPC: 2.809 (Simulation time: 03 hr 12 min 26 sec)
Heartbeat CPU 0 instructions: 600000003 cycles: 207418911 heartbeat IPC: 3.776 cumulative IPC: 2.822 (Simulation time: 03 hr 14 min 45 sec)
Heartbeat CPU 0 instructions: 610000001 cycles: 210232157 heartbeat IPC: 3.555 cumulative IPC: 2.832 (Simulation time: 03 hr 17 min 00 sec)
Heartbeat CPU 0 instructions: 620000004 cycles: 213144692 heartbeat IPC: 3.433 cumulative IPC: 2.841 (Simulation time: 03 hr 19 min 10 sec)
Heartbeat CPU 0 instructions: 630000002 cycles: 215924661 heartbeat IPC: 3.597 cumulative IPC: 2.851 (Simulation time: 03 hr 21 min 05 sec)
Heartbeat CPU 0 instructions: 640000004 cycles: 218933519 heartbeat IPC: 3.324 cumulative IPC: 2.858 (Simulation time: 03 hr 22 min 37 sec)
Heartbeat CPU 0 instructions: 650000001 cycles: 221628361 heartbeat IPC: 3.711 cumulative IPC: 2.869 (Simulation time: 03 hr 23 min 45 sec)
Simulation finished CPU 0 instructions: 600000001 cycles: 209128300 cumulative IPC: 2.869 (Simulation time: 03 hr 23 min 45 sec)
Simulation complete CPU 0 instructions: 600000001 cycles: 209128300 cumulative IPC: 2.869 (Simulation time: 03 hr 23 min 45 sec)

ChampSim completed all CPUs

=== Simulation ===
CPU 0 runs traces/400.perlbench-50B.champsimtrace.xz
Region of Interest Statistics

CPU 0 cumulative IPC: 2.869 instructions: 600000001 cycles: 209128300
CPU 0 Branch Prediction Accuracy: 99.01% MPKI: 2.04 Average ROB Occupancy at Mispredict: 93.07
Branch type MPKI
BRANCH_DIRECT_JUMP: 0.0176
BRANCH_INDIRECT: 0.38
BRANCH_CONDITIONAL: 1.19
BRANCH_DIRECT_CALL: 0.0067
BRANCH_INDIRECT_CALL: 0.431
BRANCH_RETURN: 0.0161

LLC TOTAL        ACCESS:    1354790 HIT:    1155368 MISS:     199422
LLC LOAD         ACCESS:     578864 HIT:     496211 MISS:      82653
LLC RFO          ACCESS:      47491 HIT:      38504 MISS:       8987
LLC PREFETCH     ACCESS:     578864 HIT:     480467 MISS:      98397
LLC WRITE        ACCESS:     127480 HIT:     127376 MISS:        104
LLC TRANSLATION  ACCESS:      22091 HIT:      12810 MISS:       9281
LLC PREFETCH REQUESTED:     578864 ISSUED:     578864 USEFUL:      32938 USELESS:      22030
LLC AVERAGE MISS LATENCY: 529.8 cycles
cpu0_DTLB TOTAL        ACCESS:  133227428 HIT:  131873782 MISS:    1353646
cpu0_DTLB LOAD         ACCESS:  133227428 HIT:  131873782 MISS:    1353646
cpu0_DTLB RFO          ACCESS:          0 HIT:          0 MISS:          0
cpu0_DTLB PREFETCH     ACCESS:          0 HIT:          0 MISS:          0
cpu0_DTLB WRITE        ACCESS:          0 HIT:          0 MISS:          0
cpu0_DTLB TRANSLATION  ACCESS:          0 HIT:          0 MISS:          0
cpu0_DTLB PREFETCH REQUESTED:          0 ISSUED:          0 USEFUL:          0 USELESS:          0
cpu0_DTLB AVERAGE MISS LATENCY: 9.812 cycles
cpu0_ITLB TOTAL        ACCESS:    8981273 HIT:    8771773 MISS:     209500
cpu0_ITLB LOAD         ACCESS:    8981273 HIT:    8771773 MISS:     209500
cpu0_ITLB RFO          ACCESS:          0 HIT:          0 MISS:          0
cpu0_ITLB PREFETCH     ACCESS:          0 HIT:          0 MISS:          0
cpu0_ITLB WRITE        ACCESS:          0 HIT:          0 MISS:          0
cpu0_ITLB TRANSLATION  ACCESS:          0 HIT:          0 MISS:          0
cpu0_ITLB PREFETCH REQUESTED:          0 ISSUED:          0 USEFUL:          0 USELESS:          0
cpu0_ITLB AVERAGE MISS LATENCY: 2.414 cycles
cpu0_L1D TOTAL        ACCESS:  178300160 HIT:  174562157 MISS:    3738003
cpu0_L1D LOAD         ACCESS:   92780605 HIT:   89710291 MISS:    3070314
cpu0_L1D RFO          ACCESS:          0 HIT:          0 MISS:          0
cpu0_L1D PREFETCH     ACCESS:          0 HIT:          0 MISS:          0
cpu0_L1D WRITE        ACCESS:   85491023 HIT:   84850437 MISS:     640586
cpu0_L1D TRANSLATION  ACCESS:      28532 HIT:       1429 MISS:      27103
cpu0_L1D PREFETCH REQUESTED:          0 ISSUED:          0 USEFUL:          0 USELESS:          0
cpu0_L1D AVERAGE MISS LATENCY: 21.85 cycles
cpu0_L1I TOTAL        ACCESS:   10502261 HIT:    8603710 MISS:    1898551
cpu0_L1I LOAD         ACCESS:   10502261 HIT:    8603710 MISS:    1898551
cpu0_L1I RFO          ACCESS:          0 HIT:          0 MISS:          0
cpu0_L1I PREFETCH     ACCESS:          0 HIT:          0 MISS:          0
cpu0_L1I WRITE        ACCESS:          0 HIT:          0 MISS:          0
cpu0_L1I TRANSLATION  ACCESS:          0 HIT:          0 MISS:          0
cpu0_L1I PREFETCH REQUESTED:          0 ISSUED:          0 USEFUL:          0 USELESS:          0
cpu0_L1I AVERAGE MISS LATENCY: 8.312 cycles
cpu0_L2C TOTAL        ACCESS:    3840519 HIT:    3189120 MISS:     651399
cpu0_L2C LOAD         ACCESS:    3103844 HIT:    2524980 MISS:     578864
cpu0_L2C RFO          ACCESS:     194846 HIT:     147355 MISS:      47491
cpu0_L2C PREFETCH     ACCESS:          0 HIT:          0 MISS:          0
cpu0_L2C WRITE        ACCESS:     514797 HIT:     511844 MISS:       2953
cpu0_L2C TRANSLATION  ACCESS:      27032 HIT:       4941 MISS:      22091
cpu0_L2C PREFETCH REQUESTED:          0 ISSUED:          0 USEFUL:          0 USELESS:          0
cpu0_L2C AVERAGE MISS LATENCY: 111.3 cycles
cpu0_STLB TOTAL        ACCESS:    1009712 HIT:     983020 MISS:      26692
cpu0_STLB LOAD         ACCESS:    1009712 HIT:     983020 MISS:      26692
cpu0_STLB RFO          ACCESS:          0 HIT:          0 MISS:          0
cpu0_STLB PREFETCH     ACCESS:          0 HIT:          0 MISS:          0
cpu0_STLB WRITE        ACCESS:          0 HIT:          0 MISS:          0
cpu0_STLB TRANSLATION  ACCESS:          0 HIT:          0 MISS:          0
cpu0_STLB PREFETCH REQUESTED:          0 ISSUED:          0 USEFUL:          0 USELESS:          0
cpu0_STLB AVERAGE MISS LATENCY: 284.4 cycles

DRAM Statistics

Channel 0 RQ ROW_BUFFER_HIT:      46448
  ROW_BUFFER_MISS:     120118
 AVG DBUS CONGESTED CYCLE: 3.848
WQ ROW_BUFFER_HIT: Channel 0 
  ROW_BUFFER_MISS:       1571
  FULL:       2810
