WARNING: physical memory size is smaller than virtual memory size.

*** ChampSim Multicore Out-of-Order Simulator ***
Warmup Instructions: 50000000
Simulation Instructions: 600000000
Number of CPUs: 1
Page size: 4096

Off-chip DRAM Size: 4 GiB Channels: 1 Width: 64-bit Data Race: 3200 MT/s
Heartbeat CPU 0 instructions: 10000000 cycles: 2500061 heartbeat IPC: 4 cumulative IPC: 4 (Simulation time: 00 hr 00 min 22 sec)
Heartbeat CPU 0 instructions: 20000000 cycles: 5000061 heartbeat IPC: 4 cumulative IPC: 4 (Simulation time: 00 hr 00 min 48 sec)
Heartbeat CPU 0 instructions: 30000000 cycles: 7500061 heartbeat IPC: 4 cumulative IPC: 4 (Simulation time: 00 hr 01 min 21 sec)
Heartbeat CPU 0 instructions: 40000000 cycles: 10000061 heartbeat IPC: 4 cumulative IPC: 4 (Simulation time: 00 hr 01 min 59 sec)
Heartbeat CPU 0 instructions: 50000000 cycles: 12500061 heartbeat IPC: 4 cumulative IPC: 4 (Simulation time: 00 hr 02 min 50 sec)
Warmup finished CPU 0 instructions: 50000000 cycles: 12500062 cumulative IPC: 4 (Simulation time: 00 hr 02 min 50 sec)
Warmup complete CPU 0 instructions: 50000000 cycles: 12500062 cumulative IPC: 4 (Simulation time: 00 hr 02 min 50 sec)
Heartbeat CPU 0 instructions: 60000002 cycles: 16435783 heartbeat IPC: 2.541 cumulative IPC: 2.541 (Simulation time: 00 hr 04 min 09 sec)
Heartbeat CPU 0 instructions: 70000003 cycles: 20749204 heartbeat IPC: 2.318 cumulative IPC: 2.424 (Simulation time: 00 hr 05 min 38 sec)
Heartbeat CPU 0 instructions: 80000003 cycles: 25212938 heartbeat IPC: 2.24 cumulative IPC: 2.36 (Simulation time: 00 hr 07 min 22 sec)
Heartbeat CPU 0 instructions: 90000000 cycles: 28902625 heartbeat IPC: 2.71 cumulative IPC: 2.439 (Simulation time: 00 hr 08 min 56 sec)
Heartbeat CPU 0 instructions: 100000003 cycles: 32797283 heartbeat IPC: 2.568 cumulative IPC: 2.463 (Simulation time: 00 hr 10 min 31 sec)
Heartbeat CPU 0 instructions: 110000002 cycles: 36888882 heartbeat IPC: 2.444 cumulative IPC: 2.46 (Simulation time: 00 hr 12 min 10 sec)
Heartbeat CPU 0 instructions: 120000001 cycles: 40602045 heartbeat IPC: 2.693 cumulative IPC: 2.491 (Simulation time: 00 hr 13 min 43 sec)
Heartbeat CPU 0 instructions: 130000003 cycles: 44366187 heartbeat IPC: 2.657 cumulative IPC: 2.511 (Simulation time: 00 hr 15 min 16 sec)
Heartbeat CPU 0 instructions: 140000002 cycles: 48491614 heartbeat IPC: 2.424 cumulative IPC: 2.501 (Simulation time: 00 hr 16 min 47 sec)
Heartbeat CPU 0 instructions: 150000001 cycles: 52535644 heartbeat IPC: 2.473 cumulative IPC: 2.498 (Simulation time: 00 hr 18 min 12 sec)
Heartbeat CPU 0 instructions: 160000000 cycles: 56184366 heartbeat IPC: 2.741 cumulative IPC: 2.518 (Simulation time: 00 hr 19 min 33 sec)
Heartbeat CPU 0 instructions: 170000001 cycles: 60350038 heartbeat IPC: 2.401 cumulative IPC: 2.508 (Simulation time: 00 hr 21 min 03 sec)
Heartbeat CPU 0 instructions: 180000001 cycles: 63805525 heartbeat IPC: 2.894 cumulative IPC: 2.534 (Simulation time: 00 hr 22 min 37 sec)
Heartbeat CPU 0 instructions: 190000002 cycles: 67382191 heartbeat IPC: 2.796 cumulative IPC: 2.551 (Simulation time: 00 hr 24 min 11 sec)
Heartbeat CPU 0 instructions: 200000002 cycles: 71153161 heartbeat IPC: 2.652 cumulative IPC: 2.557 (Simulation time: 00 hr 25 min 42 sec)
Heartbeat CPU 0 instructions: 210000000 cycles: 74788089 heartbeat IPC: 2.751 cumulative IPC: 2.569 (Simulation time: 00 hr 27 min 13 sec)
Heartbeat CPU 0 instructions: 220000001 cycles: 78655984 heartbeat IPC: 2.585 cumulative IPC: 2.57 (Simulation time: 00 hr 28 min 49 sec)
Heartbeat CPU 0 instructions: 230000002 cycles: 82491062 heartbeat IPC: 2.608 cumulative IPC: 2.572 (Simulation time: 00 hr 30 min 22 sec)
Heartbeat CPU 0 instructions: 240000001 cycles: 86693138 heartbeat IPC: 2.38 cumulative IPC: 2.561 (Simulation time: 00 hr 31 min 05 sec)
Heartbeat CPU 0 instructions: 250000003 cycles: 91251932 heartbeat IPC: 2.194 cumulative IPC: 2.54 (Simulation time: 00 hr 31 min 51 sec)
Heartbeat CPU 0 instructions: 260000000 cycles: 95043028 heartbeat IPC: 2.638 cumulative IPC: 2.544 (Simulation time: 00 hr 32 min 35 sec)
Heartbeat CPU 0 instructions: 270000003 cycles: 101666040 heartbeat IPC: 1.51 cumulative IPC: 2.467 (Simulation time: 00 hr 33 min 31 sec)
Heartbeat CPU 0 instructions: 280000000 cycles: 111310609 heartbeat IPC: 1.037 cumulative IPC: 2.328 (Simulation time: 00 hr 34 min 46 sec)
Heartbeat CPU 0 instructions: 290000000 cycles: 119922033 heartbeat IPC: 1.161 cumulative IPC: 2.234 (Simulation time: 00 hr 35 min 57 sec)
Heartbeat CPU 0 instructions: 300000003 cycles: 127003619 heartbeat IPC: 1.412 cumulative IPC: 2.183 (Simulation time: 00 hr 37 min 05 sec)
Heartbeat CPU 0 instructions: 310000004 cycles: 136852652 heartbeat IPC: 1.015 cumulative IPC: 2.091 (Simulation time: 00 hr 38 min 33 sec)
Heartbeat CPU 0 instructions: 320000004 cycles: 141734893 heartbeat IPC: 2.048 cumulative IPC: 2.089 (Simulation time: 00 hr 39 min 26 sec)
Heartbeat CPU 0 instructions: 330000000 cycles: 145743660 heartbeat IPC: 2.495 cumulative IPC: 2.101 (Simulation time: 00 hr 40 min 11 sec)
Heartbeat CPU 0 instructions: 340000001 cycles: 149663513 heartbeat IPC: 2.551 cumulative IPC: 2.114 (Simulation time: 00 hr 40 min 54 sec)
Heartbeat CPU 0 instructions: 350000004 cycles: 153679879 heartbeat IPC: 2.49 cumulative IPC: 2.125 (Simulation time: 00 hr 41 min 37 sec)
Heartbeat CPU 0 instructions: 360000003 cycles: 157411923 heartbeat IPC: 2.679 cumulative IPC: 2.139 (Simulation time: 00 hr 42 min 20 sec)
Heartbeat CPU 0 instructions: 370000001 cycles: 161116858 heartbeat IPC: 2.699 cumulative IPC: 2.153 (Simulation time: 00 hr 43 min 03 sec)
Heartbeat CPU 0 instructions: 380000004 cycles: 164679511 heartbeat IPC: 2.807 cumulative IPC: 2.168 (Simulation time: 00 hr 43 min 44 sec)
Heartbeat CPU 0 instructions: 390000002 cycles: 168267160 heartbeat IPC: 2.787 cumulative IPC: 2.183 (Simulation time: 00 hr 44 min 26 sec)
Heartbeat CPU 0 instructions: 400000000 cycles: 172107537 heartbeat IPC: 2.604 cumulative IPC: 2.193 (Simulation time: 00 hr 45 min 09 sec)
Heartbeat CPU 0 instructions: 410000000 cycles: 177506976 heartbeat IPC: 1.852 cumulative IPC: 2.182 (Simulation time: 00 hr 46 min 00 sec)
Heartbeat CPU 0 instructions: 420000003 cycles: 184234736 heartbeat IPC: 1.486 cumulative IPC: 2.154 (Simulation time: 00 hr 47 min 00 sec)
Heartbeat CPU 0 instructions: 430000000 cycles: 190729598 heartbeat IPC: 1.54 cumulative IPC: 2.132 (Simulation time: 00 hr 48 min 02 sec)
Heartbeat CPU 0 instructions: 440000004 cycles: 196743638 heartbeat IPC: 1.663 cumulative IPC: 2.117 (Simulation time: 00 hr 49 min 02 sec)
Heartbeat CPU 0 instructions: 450000001 cycles: 202960884 heartbeat IPC: 1.608 cumulative IPC: 2.1 (Simulation time: 00 hr 50 min 04 sec)
Heartbeat CPU 0 instructions: 460000002 cycles: 210427615 heartbeat IPC: 1.339 cumulative IPC: 2.071 (Simulation time: 00 hr 51 min 12 sec)
Heartbeat CPU 0 instructions: 470000003 cycles: 216738152 heartbeat IPC: 1.585 cumulative IPC: 2.056 (Simulation time: 00 hr 52 min 14 sec)
Heartbeat CPU 0 instructions: 480000003 cycles: 220627546 heartbeat IPC: 2.571 cumulative IPC: 2.066 (Simulation time: 00 hr 53 min 02 sec)
Heartbeat CPU 0 instructions: 490000001 cycles: 224742353 heartbeat IPC: 2.43 cumulative IPC: 2.073 (Simulation time: 00 hr 53 min 49 sec)
Heartbeat CPU 0 instructions: 500000002 cycles: 228589019 heartbeat IPC: 2.6 cumulative IPC: 2.082 (Simulation time: 00 hr 54 min 34 sec)
Heartbeat CPU 0 instructions: 510000000 cycles: 232223041 heartbeat IPC: 2.752 cumulative IPC: 2.094 (Simulation time: 00 hr 55 min 18 sec)
Heartbeat CPU 0 instructions: 520000000 cycles: 235930315 heartbeat IPC: 2.697 cumulative IPC: 2.104 (Simulation time: 00 hr 56 min 02 sec)
Heartbeat CPU 0 instructions: 530000001 cycles: 242940365 heartbeat IPC: 1.427 cumulative IPC: 2.083 (Simulation time: 00 hr 57 min 07 sec)
Heartbeat CPU 0 instructions: 540000000 cycles: 250035204 heartbeat IPC: 1.409 cumulative IPC: 2.063 (Simulation time: 00 hr 58 min 14 sec)
Heartbeat CPU 0 instructions: 550000004 cycles: 257354499 heartbeat IPC: 1.366 cumulative IPC: 2.042 (Simulation time: 00 hr 59 min 23 sec)
Heartbeat CPU 0 instructions: 560000004 cycles: 261216867 heartbeat IPC: 2.589 cumulative IPC: 2.051 (Simulation time: 01 hr 00 min 08 sec)
Heartbeat CPU 0 instructions: 570000001 cycles: 264308285 heartbeat IPC: 3.235 cumulative IPC: 2.065 (Simulation time: 01 hr 00 min 49 sec)
Heartbeat CPU 0 instructions: 580000003 cycles: 267769282 heartbeat IPC: 2.889 cumulative IPC: 2.076 (Simulation time: 01 hr 01 min 29 sec)
Heartbeat CPU 0 instructions: 590000002 cycles: 271321629 heartbeat IPC: 2.815 cumulative IPC: 2.086 (Simulation time: 01 hr 02 min 10 sec)
Heartbeat CPU 0 instructions: 600000003 cycles: 274349051 heartbeat IPC: 3.303 cumulative IPC: 2.1 (Simulation time: 01 hr 02 min 51 sec)
Heartbeat CPU 0 instructions: 610000001 cycles: 277807366 heartbeat IPC: 2.892 cumulative IPC: 2.111 (Simulation time: 01 hr 03 min 33 sec)
Heartbeat CPU 0 instructions: 620000000 cycles: 281780482 heartbeat IPC: 2.517 cumulative IPC: 2.117 (Simulation time: 01 hr 04 min 19 sec)
Heartbeat CPU 0 instructions: 630000002 cycles: 285111711 heartbeat IPC: 3.002 cumulative IPC: 2.128 (Simulation time: 01 hr 05 min 01 sec)
Heartbeat CPU 0 instructions: 640000004 cycles: 289097971 heartbeat IPC: 2.509 cumulative IPC: 2.133 (Simulation time: 01 hr 05 min 47 sec)
Heartbeat CPU 0 instructions: 650000001 cycles: 292908357 heartbeat IPC: 2.624 cumulative IPC: 2.14 (Simulation time: 01 hr 06 min 32 sec)
Simulation finished CPU 0 instructions: 600000001 cycles: 280408296 cumulative IPC: 2.14 (Simulation time: 01 hr 06 min 32 sec)
Simulation complete CPU 0 instructions: 600000001 cycles: 280408296 cumulative IPC: 2.14 (Simulation time: 01 hr 06 min 32 sec)

ChampSim completed all CPUs

=== Simulation ===
CPU 0 runs traces/400.perlbench-50B.champsimtrace.xz
Region of Interest Statistics

CPU 0 cumulative IPC: 2.14 instructions: 600000001 cycles: 280408296
CPU 0 Branch Prediction Accuracy: 96.2% MPKI: 7.839 Average ROB Occupancy at Mispredict: 43.01
Branch type MPKI
BRANCH_DIRECT_JUMP: 0.0176
BRANCH_INDIRECT: 0.38
BRANCH_CONDITIONAL: 6.99
BRANCH_DIRECT_CALL: 0.0067
BRANCH_INDIRECT_CALL: 0.431
BRANCH_RETURN: 0.0161

LLC TOTAL        ACCESS:    1353751 HIT:    1163772 MISS:     189979
LLC LOAD         ACCESS:     578552 HIT:     496687 MISS:      81865
LLC RFO          ACCESS:      47376 HIT:      36835 MISS:      10541
LLC PREFETCH     ACCESS:     578552 HIT:     491506 MISS:      87046
LLC WRITE        ACCESS:     127182 HIT:     126472 MISS:        710
LLC TRANSLATION  ACCESS:      22089 HIT:      12272 MISS:       9817
LLC PREFETCH REQUESTED:     578552 ISSUED:     578552 USEFUL:      34656 USELESS:       9480
LLC AVERAGE MISS LATENCY: 471.7 cycles
cpu0_DTLB TOTAL        ACCESS:  146521701 HIT:  145217014 MISS:    1304687
cpu0_DTLB LOAD         ACCESS:  146521701 HIT:  145217014 MISS:    1304687
cpu0_DTLB RFO          ACCESS:          0 HIT:          0 MISS:          0
cpu0_DTLB PREFETCH     ACCESS:          0 HIT:          0 MISS:          0
cpu0_DTLB WRITE        ACCESS:          0 HIT:          0 MISS:          0
cpu0_DTLB TRANSLATION  ACCESS:          0 HIT:          0 MISS:          0
cpu0_DTLB PREFETCH REQUESTED:          0 ISSUED:          0 USEFUL:          0 USELESS:          0
cpu0_DTLB AVERAGE MISS LATENCY: 10.28 cycles
cpu0_ITLB TOTAL        ACCESS:    8983790 HIT:    8799297 MISS:     184493
cpu0_ITLB LOAD         ACCESS:    8983790 HIT:    8799297 MISS:     184493
cpu0_ITLB RFO          ACCESS:          0 HIT:          0 MISS:          0
cpu0_ITLB PREFETCH     ACCESS:          0 HIT:          0 MISS:          0
cpu0_ITLB WRITE        ACCESS:          0 HIT:          0 MISS:          0
cpu0_ITLB TRANSLATION  ACCESS:          0 HIT:          0 MISS:          0
cpu0_ITLB PREFETCH REQUESTED:          0 ISSUED:          0 USEFUL:          0 USELESS:          0
cpu0_ITLB AVERAGE MISS LATENCY: 3.02 cycles
cpu0_L1D TOTAL        ACCESS:  193326002 HIT:  189697696 MISS:    3628306
cpu0_L1D LOAD         ACCESS:  107479780 HIT:  104488968 MISS:    2990812
cpu0_L1D RFO          ACCESS:          0 HIT:          0 MISS:          0
cpu0_L1D PREFETCH     ACCESS:          0 HIT:          0 MISS:          0
cpu0_L1D WRITE        ACCESS:   85817701 HIT:   85207302 MISS:     610399
cpu0_L1D TRANSLATION  ACCESS:      28521 HIT:       1426 MISS:      27095
cpu0_L1D PREFETCH REQUESTED:          0 ISSUED:          0 USEFUL:          0 USELESS:          0
cpu0_L1D AVERAGE MISS LATENCY: 21.32 cycles
cpu0_L1I TOTAL        ACCESS:   10418744 HIT:    8657125 MISS:    1761619
cpu0_L1I LOAD         ACCESS:   10418744 HIT:    8657125 MISS:    1761619
cpu0_L1I RFO          ACCESS:          0 HIT:          0 MISS:          0
cpu0_L1I PREFETCH     ACCESS:          0 HIT:          0 MISS:          0
cpu0_L1I WRITE        ACCESS:          0 HIT:          0 MISS:          0
cpu0_L1I TRANSLATION  ACCESS:          0 HIT:          0 MISS:          0
cpu0_L1I PREFETCH REQUESTED:          0 ISSUED:          0 USEFUL:          0 USELESS:          0
cpu0_L1I AVERAGE MISS LATENCY: 9.124 cycles
cpu0_L2C TOTAL        ACCESS:    3834721 HIT:    3183626 MISS:     651095
cpu0_L2C LOAD         ACCESS:    3105026 HIT:    2526474 MISS:     578552
cpu0_L2C RFO          ACCESS:     191496 HIT:     144119 MISS:      47377
cpu0_L2C PREFETCH     ACCESS:          0 HIT:          0 MISS:          0
cpu0_L2C WRITE        ACCESS:     511169 HIT:     508092 MISS:       3077
cpu0_L2C TRANSLATION  ACCESS:      27030 HIT:       4941 MISS:      22089
cpu0_L2C PREFETCH REQUESTED:          0 ISSUED:          0 USEFUL:          0 USELESS:          0
cpu0_L2C AVERAGE MISS LATENCY: 101 cycles
cpu0_STLB TOTAL        ACCESS:    1008228 HIT:     981535 MISS:      26693
cpu0_STLB LOAD         ACCESS:    1008228 HIT:     981535 MISS:      26693
cpu0_STLB RFO          ACCESS:          0 HIT:          0 MISS:          0
cpu0_STLB PREFETCH     ACCESS:          0 HIT:          0 MISS:          0
cpu0_STLB WRITE        ACCESS:          0 HIT:          0 MISS:          0
cpu0_STLB TRANSLATION  ACCESS:          0 HIT:          0 MISS:          0
cpu0_STLB PREFETCH REQUESTED:          0 ISSUED:          0 USEFUL:          0 USELESS:          0
cpu0_STLB AVERAGE MISS LATENCY: 276.9 cycles

DRAM Statistics

Channel 0 RQ ROW_BUFFER_HIT:      44008
  ROW_BUFFER_MISS:     117866
 AVG DBUS CONGESTED CYCLE: 3.824
WQ ROW_BUFFER_HIT: Channel 0 
  ROW_BUFFER_MISS:       3088
  FULL:       7542
