WARNING: physical memory size is smaller than virtual memory size.

*** ChampSim Multicore Out-of-Order Simulator ***
Warmup Instructions: 50000000
Simulation Instructions: 600000000
Number of CPUs: 1
Page size: 4096

Off-chip DRAM Size: 4 GiB Channels: 1 Width: 64-bit Data Race: 3200 MT/s
Heartbeat CPU 0 instructions: 10000000 cycles: 2500061 heartbeat IPC: 4 cumulative IPC: 4 (Simulation time: 00 hr 03 min 36 sec)
Heartbeat CPU 0 instructions: 20000000 cycles: 5000061 heartbeat IPC: 4 cumulative IPC: 4 (Simulation time: 00 hr 07 min 12 sec)
Heartbeat CPU 0 instructions: 30000000 cycles: 7500061 heartbeat IPC: 4 cumulative IPC: 4 (Simulation time: 00 hr 10 min 48 sec)
Heartbeat CPU 0 instructions: 40000000 cycles: 10000061 heartbeat IPC: 4 cumulative IPC: 4 (Simulation time: 00 hr 14 min 10 sec)
Heartbeat CPU 0 instructions: 50000000 cycles: 12500061 heartbeat IPC: 4 cumulative IPC: 4 (Simulation time: 00 hr 17 min 41 sec)
Warmup finished CPU 0 instructions: 50000000 cycles: 12500062 cumulative IPC: 4 (Simulation time: 00 hr 17 min 41 sec)
Warmup complete CPU 0 instructions: 50000000 cycles: 12500062 cumulative IPC: 4 (Simulation time: 00 hr 17 min 41 sec)
Heartbeat CPU 0 instructions: 60000004 cycles: 15564620 heartbeat IPC: 3.263 cumulative IPC: 3.263 (Simulation time: 00 hr 22 min 03 sec)
Heartbeat CPU 0 instructions: 70000003 cycles: 18641588 heartbeat IPC: 3.25 cumulative IPC: 3.257 (Simulation time: 00 hr 26 min 23 sec)
Heartbeat CPU 0 instructions: 80000001 cycles: 21805471 heartbeat IPC: 3.161 cumulative IPC: 3.224 (Simulation time: 00 hr 30 min 48 sec)
Heartbeat CPU 0 instructions: 90000000 cycles: 24579826 heartbeat IPC: 3.604 cumulative IPC: 3.311 (Simulation time: 00 hr 35 min 00 sec)
Heartbeat CPU 0 instructions: 100000003 cycles: 27485789 heartbeat IPC: 3.441 cumulative IPC: 3.337 (Simulation time: 00 hr 39 min 17 sec)
Heartbeat CPU 0 instructions: 110000000 cycles: 30516248 heartbeat IPC: 3.3 cumulative IPC: 3.33 (Simulation time: 00 hr 43 min 34 sec)
Heartbeat CPU 0 instructions: 120000001 cycles: 33344904 heartbeat IPC: 3.535 cumulative IPC: 3.358 (Simulation time: 00 hr 47 min 48 sec)
Heartbeat CPU 0 instructions: 130000003 cycles: 36316874 heartbeat IPC: 3.365 cumulative IPC: 3.359 (Simulation time: 00 hr 52 min 09 sec)
Heartbeat CPU 0 instructions: 140000002 cycles: 39292027 heartbeat IPC: 3.361 cumulative IPC: 3.359 (Simulation time: 00 hr 56 min 25 sec)
Heartbeat CPU 0 instructions: 150000001 cycles: 42201849 heartbeat IPC: 3.437 cumulative IPC: 3.367 (Simulation time: 01 hr 00 min 38 sec)
Heartbeat CPU 0 instructions: 160000000 cycles: 45185119 heartbeat IPC: 3.352 cumulative IPC: 3.365 (Simulation time: 01 hr 04 min 56 sec)
Heartbeat CPU 0 instructions: 170000001 cycles: 48224629 heartbeat IPC: 3.29 cumulative IPC: 3.359 (Simulation time: 01 hr 09 min 18 sec)
Heartbeat CPU 0 instructions: 180000000 cycles: 51072742 heartbeat IPC: 3.511 cumulative IPC: 3.37 (Simulation time: 01 hr 13 min 35 sec)
Heartbeat CPU 0 instructions: 190000002 cycles: 53888118 heartbeat IPC: 3.552 cumulative IPC: 3.383 (Simulation time: 01 hr 17 min 55 sec)
Heartbeat CPU 0 instructions: 200000002 cycles: 56842389 heartbeat IPC: 3.385 cumulative IPC: 3.383 (Simulation time: 01 hr 22 min 15 sec)
Heartbeat CPU 0 instructions: 210000000 cycles: 59797599 heartbeat IPC: 3.384 cumulative IPC: 3.383 (Simulation time: 01 hr 26 min 33 sec)
Heartbeat CPU 0 instructions: 220000001 cycles: 62681099 heartbeat IPC: 3.468 cumulative IPC: 3.388 (Simulation time: 01 hr 30 min 49 sec)
Heartbeat CPU 0 instructions: 230000002 cycles: 65682422 heartbeat IPC: 3.332 cumulative IPC: 3.385 (Simulation time: 01 hr 35 min 07 sec)
Heartbeat CPU 0 instructions: 240000004 cycles: 68775598 heartbeat IPC: 3.233 cumulative IPC: 3.376 (Simulation time: 01 hr 39 min 29 sec)
Heartbeat CPU 0 instructions: 250000003 cycles: 71897140 heartbeat IPC: 3.204 cumulative IPC: 3.367 (Simulation time: 01 hr 44 min 00 sec)
Heartbeat CPU 0 instructions: 260000000 cycles: 74782745 heartbeat IPC: 3.465 cumulative IPC: 3.372 (Simulation time: 01 hr 48 min 16 sec)
Heartbeat CPU 0 instructions: 270000002 cycles: 80806549 heartbeat IPC: 1.66 cumulative IPC: 3.221 (Simulation time: 01 hr 54 min 46 sec)
Heartbeat CPU 0 instructions: 280000000 cycles: 89491190 heartbeat IPC: 1.151 cumulative IPC: 2.987 (Simulation time: 02 hr 03 min 12 sec)
Heartbeat CPU 0 instructions: 290000000 cycles: 96611986 heartbeat IPC: 1.404 cumulative IPC: 2.853 (Simulation time: 02 hr 10 min 34 sec)
Heartbeat CPU 0 instructions: 300000003 cycles: 101747360 heartbeat IPC: 1.947 cumulative IPC: 2.801 (Simulation time: 02 hr 16 min 50 sec)
Heartbeat CPU 0 instructions: 310000004 cycles: 109141074 heartbeat IPC: 1.353 cumulative IPC: 2.69 (Simulation time: 02 hr 24 min 50 sec)
Heartbeat CPU 0 instructions: 320000004 cycles: 112885752 heartbeat IPC: 2.67 cumulative IPC: 2.69 (Simulation time: 02 hr 29 min 57 sec)
Heartbeat CPU 0 instructions: 330000000 cycles: 116070909 heartbeat IPC: 3.14 cumulative IPC: 2.703 (Simulation time: 02 hr 34 min 33 sec)
Heartbeat CPU 0 instructions: 340000001 cycles: 118994375 heartbeat IPC: 3.421 cumulative IPC: 2.723 (Simulation time: 02 hr 38 min 55 sec)
Heartbeat CPU 0 instructions: 350000000 cycles: 122040397 heartbeat IPC: 3.283 cumulative IPC: 2.739 (Simulation time: 02 hr 43 min 22 sec)
Heartbeat CPU 0 instructions: 360000003 cycles: 124905242 heartbeat IPC: 3.491 cumulative IPC: 2.758 (Simulation time: 02 hr 47 min 45 sec)
Heartbeat CPU 0 instructions: 370000001 cycles: 127752184 heartbeat IPC: 3.513 cumulative IPC: 2.777 (Simulation time: 02 hr 52 min 06 sec)
Heartbeat CPU 0 instructions: 380000004 cycles: 130623794 heartbeat IPC: 3.482 cumulative IPC: 2.794 (Simulation time: 02 hr 56 min 33 sec)
Heartbeat CPU 0 instructions: 390000002 cycles: 133511626 heartbeat IPC: 3.463 cumulative IPC: 2.81 (Simulation time: 03 hr 00 min 56 sec)
Heartbeat CPU 0 instructions: 400000000 cycles: 136501450 heartbeat IPC: 3.345 cumulative IPC: 2.823 (Simulation time: 03 hr 05 min 22 sec)
Heartbeat CPU 0 instructions: 410000000 cycles: 140771451 heartbeat IPC: 2.342 cumulative IPC: 2.807 (Simulation time: 03 hr 10 min 46 sec)
Heartbeat CPU 0 instructions: 420000003 cycles: 145832253 heartbeat IPC: 1.976 cumulative IPC: 2.775 (Simulation time: 03 hr 16 min 49 sec)
Heartbeat CPU 0 instructions: 430000000 cycles: 150371429 heartbeat IPC: 2.203 cumulative IPC: 2.756 (Simulation time: 03 hr 22 min 44 sec)
Heartbeat CPU 0 instructions: 440000004 cycles: 154698513 heartbeat IPC: 2.311 cumulative IPC: 2.743 (Simulation time: 03 hr 28 min 22 sec)
Heartbeat CPU 0 instructions: 450000001 cycles: 159086474 heartbeat IPC: 2.279 cumulative IPC: 2.729 (Simulation time: 03 hr 34 min 02 sec)
Heartbeat CPU 0 instructions: 460000002 cycles: 164306129 heartbeat IPC: 1.916 cumulative IPC: 2.701 (Simulation time: 03 hr 40 min 28 sec)
Heartbeat CPU 0 instructions: 470000003 cycles: 168606280 heartbeat IPC: 2.325 cumulative IPC: 2.69 (Simulation time: 03 hr 46 min 02 sec)
Heartbeat CPU 0 instructions: 480000000 cycles: 171642325 heartbeat IPC: 3.294 cumulative IPC: 2.702 (Simulation time: 03 hr 50 min 28 sec)
Heartbeat CPU 0 instructions: 490000001 cycles: 174677596 heartbeat IPC: 3.295 cumulative IPC: 2.713 (Simulation time: 03 hr 54 min 56 sec)
Heartbeat CPU 0 instructions: 500000002 cycles: 177614118 heartbeat IPC: 3.405 cumulative IPC: 2.725 (Simulation time: 03 hr 59 min 22 sec)
Heartbeat CPU 0 instructions: 510000000 cycles: 180532099 heartbeat IPC: 3.427 cumulative IPC: 2.738 (Simulation time: 04 hr 03 min 45 sec)
Heartbeat CPU 0 instructions: 520000000 cycles: 183475231 heartbeat IPC: 3.398 cumulative IPC: 2.749 (Simulation time: 04 hr 08 min 09 sec)
Heartbeat CPU 0 instructions: 530000001 cycles: 188307688 heartbeat IPC: 2.069 cumulative IPC: 2.73 (Simulation time: 04 hr 14 min 05 sec)
Heartbeat CPU 0 instructions: 540000000 cycles: 193088465 heartbeat IPC: 2.092 cumulative IPC: 2.713 (Simulation time: 04 hr 20 min 03 sec)
Heartbeat CPU 0 instructions: 550000004 cycles: 198143808 heartbeat IPC: 1.978 cumulative IPC: 2.693 (Simulation time: 04 hr 26 min 10 sec)
Heartbeat CPU 0 instructions: 560000004 cycles: 201317001 heartbeat IPC: 3.151 cumulative IPC: 2.701 (Simulation time: 04 hr 30 min 42 sec)
Heartbeat CPU 0 instructions: 570000002 cycles: 204108336 heartbeat IPC: 3.583 cumulative IPC: 2.714 (Simulation time: 04 hr 35 min 03 sec)
Heartbeat CPU 0 instructions: 580000000 cycles: 207008607 heartbeat IPC: 3.448 cumulative IPC: 2.725 (Simulation time: 04 hr 39 min 22 sec)
Heartbeat CPU 0 instructions: 590000001 cycles: 209911696 heartbeat IPC: 3.445 cumulative IPC: 2.735 (Simulation time: 04 hr 43 min 40 sec)
Heartbeat CPU 0 instructions: 600000003 cycles: 212608362 heartbeat IPC: 3.708 cumulative IPC: 2.749 (Simulation time: 04 hr 47 min 58 sec)
Heartbeat CPU 0 instructions: 610000001 cycles: 215495441 heartbeat IPC: 3.464 cumulative IPC: 2.759 (Simulation time: 04 hr 52 min 20 sec)
Heartbeat CPU 0 instructions: 620000002 cycles: 218475182 heartbeat IPC: 3.356 cumulative IPC: 2.767 (Simulation time: 04 hr 56 min 55 sec)
Heartbeat CPU 0 instructions: 630000002 cycles: 221324496 heartbeat IPC: 3.51 cumulative IPC: 2.777 (Simulation time: 05 hr 01 min 16 sec)
Heartbeat CPU 0 instructions: 640000004 cycles: 224371921 heartbeat IPC: 3.281 cumulative IPC: 2.785 (Simulation time: 05 hr 05 min 43 sec)
Heartbeat CPU 0 instructions: 650000001 cycles: 227114232 heartbeat IPC: 3.647 cumulative IPC: 2.796 (Simulation time: 05 hr 09 min 59 sec)
Simulation finished CPU 0 instructions: 600000001 cycles: 214614171 cumulative IPC: 2.796 (Simulation time: 05 hr 09 min 59 sec)
Simulation complete CPU 0 instructions: 600000001 cycles: 214614171 cumulative IPC: 2.796 (Simulation time: 05 hr 09 min 59 sec)

ChampSim completed all CPUs

=== Simulation ===
CPU 0 runs traces/400.perlbench-50B.champsimtrace.xz
Region of Interest Statistics

CPU 0 cumulative IPC: 2.796 instructions: 600000001 cycles: 214614171
CPU 0 Branch Prediction Accuracy: 98.73% MPKI: 2.62 Average ROB Occupancy at Mispredict: 85.21
Branch type MPKI
BRANCH_DIRECT_JUMP: 0.0176
BRANCH_INDIRECT: 0.38
BRANCH_CONDITIONAL: 1.77
BRANCH_DIRECT_CALL: 0.0067
BRANCH_INDIRECT_CALL: 0.431
BRANCH_RETURN: 0.0161

LLC TOTAL        ACCESS:     846116 HIT:     727223 MISS:     118893
LLC LOAD         ACCESS:     583257 HIT:     493367 MISS:      89890
LLC RFO          ACCESS:      46838 HIT:      37564 MISS:       9274
LLC PREFETCH     ACCESS:      65451 HIT:      54983 MISS:      10468
LLC WRITE        ACCESS:     128423 HIT:     128303 MISS:        120
LLC TRANSLATION  ACCESS:      22147 HIT:      13006 MISS:       9141
LLC PREFETCH REQUESTED:      65451 ISSUED:      65451 USEFUL:       6406 USELESS:        263
LLC AVERAGE MISS LATENCY: 526.1 cycles
cpu0_DTLB TOTAL        ACCESS:  134643949 HIT:  133292599 MISS:    1351350
cpu0_DTLB LOAD         ACCESS:  134643949 HIT:  133292599 MISS:    1351350
cpu0_DTLB RFO          ACCESS:          0 HIT:          0 MISS:          0
cpu0_DTLB PREFETCH     ACCESS:          0 HIT:          0 MISS:          0
cpu0_DTLB WRITE        ACCESS:          0 HIT:          0 MISS:          0
cpu0_DTLB TRANSLATION  ACCESS:          0 HIT:          0 MISS:          0
cpu0_DTLB PREFETCH REQUESTED:          0 ISSUED:          0 USEFUL:          0 USELESS:          0
cpu0_DTLB AVERAGE MISS LATENCY: 9.417 cycles
cpu0_ITLB TOTAL        ACCESS:    8968370 HIT:    8761220 MISS:     207150
cpu0_ITLB LOAD         ACCESS:    8968370 HIT:    8761220 MISS:     207150
cpu0_ITLB RFO          ACCESS:          0 HIT:          0 MISS:          0
cpu0_ITLB PREFETCH     ACCESS:          0 HIT:          0 MISS:          0
cpu0_ITLB WRITE        ACCESS:          0 HIT:          0 MISS:          0
cpu0_ITLB TRANSLATION  ACCESS:          0 HIT:          0 MISS:          0
cpu0_ITLB PREFETCH REQUESTED:          0 ISSUED:          0 USEFUL:          0 USELESS:          0
cpu0_ITLB AVERAGE MISS LATENCY: 2.298 cycles
cpu0_L1D TOTAL        ACCESS:  180720807 HIT:  176978451 MISS:    3742356
cpu0_L1D LOAD         ACCESS:   95164250 HIT:   92085636 MISS:    3078614
cpu0_L1D RFO          ACCESS:          0 HIT:          0 MISS:          0
cpu0_L1D PREFETCH     ACCESS:          0 HIT:          0 MISS:          0
cpu0_L1D WRITE        ACCESS:   85528038 HIT:   84891389 MISS:     636649
cpu0_L1D TRANSLATION  ACCESS:      28519 HIT:       1426 MISS:      27093
cpu0_L1D PREFETCH REQUESTED:          0 ISSUED:          0 USEFUL:          0 USELESS:          0
cpu0_L1D AVERAGE MISS LATENCY: 21.11 cycles
cpu0_L1I TOTAL        ACCESS:   10483376 HIT:    8594981 MISS:    1888395
cpu0_L1I LOAD         ACCESS:   10483376 HIT:    8594981 MISS:    1888395
cpu0_L1I RFO          ACCESS:          0 HIT:          0 MISS:          0
cpu0_L1I PREFETCH     ACCESS:          0 HIT:          0 MISS:          0
cpu0_L1I WRITE        ACCESS:          0 HIT:          0 MISS:          0
cpu0_L1I TRANSLATION  ACCESS:          0 HIT:          0 MISS:          0
cpu0_L1I PREFETCH REQUESTED:          0 ISSUED:          0 USEFUL:          0 USELESS:          0
cpu0_L1I AVERAGE MISS LATENCY: 8.543 cycles
cpu0_L2C TOTAL        ACCESS:    3840362 HIT:    3184996 MISS:     655366
cpu0_L2C LOAD         ACCESS:    3104540 HIT:    2521283 MISS:     583257
cpu0_L2C RFO          ACCESS:     194363 HIT:     147525 MISS:      46838
cpu0_L2C PREFETCH     ACCESS:          0 HIT:          0 MISS:          0
cpu0_L2C WRITE        ACCESS:     514447 HIT:     511323 MISS:       3124
cpu0_L2C TRANSLATION  ACCESS:      27012 HIT:       4865 MISS:      22147
cpu0_L2C PREFETCH REQUESTED:          0 ISSUED:          0 USEFUL:          0 USELESS:          0
cpu0_L2C AVERAGE MISS LATENCY: 106.5 cycles
cpu0_STLB TOTAL        ACCESS:    1009306 HIT:     982618 MISS:      26688
cpu0_STLB LOAD         ACCESS:    1009306 HIT:     982618 MISS:      26688
cpu0_STLB RFO          ACCESS:          0 HIT:          0 MISS:          0
cpu0_STLB PREFETCH     ACCESS:          0 HIT:          0 MISS:          0
cpu0_STLB WRITE        ACCESS:          0 HIT:          0 MISS:          0
cpu0_STLB TRANSLATION  ACCESS:          0 HIT:          0 MISS:          0
cpu0_STLB PREFETCH REQUESTED:          0 ISSUED:          0 USEFUL:          0 USELESS:          0
cpu0_STLB AVERAGE MISS LATENCY: 260.1 cycles

DRAM Statistics

Channel 0 RQ ROW_BUFFER_HIT:      36508
  ROW_BUFFER_MISS:      80248
 AVG DBUS CONGESTED CYCLE: 3.777
WQ ROW_BUFFER_HIT: Channel 0 
  ROW_BUFFER_MISS:        528
  FULL:        870
