WARNING: physical memory size is smaller than virtual memory size.

*** ChampSim Multicore Out-of-Order Simulator ***
Warmup Instructions: 50000000
Simulation Instructions: 600000000
Number of CPUs: 1
Page size: 4096

Off-chip DRAM Size: 4 GiB Channels: 1 Width: 64-bit Data Race: 3200 MT/s
Heartbeat CPU 0 instructions: 10000000 cycles: 2500061 heartbeat IPC: 4 cumulative IPC: 4 (Simulation time: 00 hr 03 min 23 sec)
Heartbeat CPU 0 instructions: 20000000 cycles: 5000061 heartbeat IPC: 4 cumulative IPC: 4 (Simulation time: 00 hr 06 min 43 sec)
Heartbeat CPU 0 instructions: 30000000 cycles: 7500061 heartbeat IPC: 4 cumulative IPC: 4 (Simulation time: 00 hr 10 min 05 sec)
Heartbeat CPU 0 instructions: 40000000 cycles: 10000061 heartbeat IPC: 4 cumulative IPC: 4 (Simulation time: 00 hr 13 min 26 sec)
Heartbeat CPU 0 instructions: 50000000 cycles: 12500061 heartbeat IPC: 4 cumulative IPC: 4 (Simulation time: 00 hr 16 min 48 sec)
Warmup finished CPU 0 instructions: 50000000 cycles: 12500062 cumulative IPC: 4 (Simulation time: 00 hr 16 min 48 sec)
Warmup complete CPU 0 instructions: 50000000 cycles: 12500062 cumulative IPC: 4 (Simulation time: 00 hr 16 min 48 sec)
Heartbeat CPU 0 instructions: 60000002 cycles: 16444688 heartbeat IPC: 2.535 cumulative IPC: 2.535 (Simulation time: 00 hr 21 min 30 sec)
Heartbeat CPU 0 instructions: 70000003 cycles: 20760893 heartbeat IPC: 2.317 cumulative IPC: 2.421 (Simulation time: 00 hr 26 min 19 sec)
Heartbeat CPU 0 instructions: 80000003 cycles: 25229157 heartbeat IPC: 2.238 cumulative IPC: 2.357 (Simulation time: 00 hr 31 min 26 sec)
Heartbeat CPU 0 instructions: 90000000 cycles: 28920814 heartbeat IPC: 2.709 cumulative IPC: 2.436 (Simulation time: 00 hr 35 min 53 sec)
Heartbeat CPU 0 instructions: 100000003 cycles: 32818788 heartbeat IPC: 2.565 cumulative IPC: 2.461 (Simulation time: 00 hr 40 min 31 sec)
Heartbeat CPU 0 instructions: 110000002 cycles: 36920325 heartbeat IPC: 2.438 cumulative IPC: 2.457 (Simulation time: 00 hr 44 min 53 sec)
Heartbeat CPU 0 instructions: 120000001 cycles: 40635683 heartbeat IPC: 2.692 cumulative IPC: 2.488 (Simulation time: 00 hr 49 min 15 sec)
Heartbeat CPU 0 instructions: 130000003 cycles: 44404658 heartbeat IPC: 2.653 cumulative IPC: 2.507 (Simulation time: 00 hr 53 min 43 sec)
Heartbeat CPU 0 instructions: 140000002 cycles: 48538024 heartbeat IPC: 2.419 cumulative IPC: 2.497 (Simulation time: 00 hr 58 min 24 sec)
Heartbeat CPU 0 instructions: 150000001 cycles: 52589949 heartbeat IPC: 2.468 cumulative IPC: 2.494 (Simulation time: 01 hr 03 min 01 sec)
Heartbeat CPU 0 instructions: 160000000 cycles: 56247531 heartbeat IPC: 2.734 cumulative IPC: 2.514 (Simulation time: 01 hr 07 min 28 sec)
Heartbeat CPU 0 instructions: 170000001 cycles: 60421737 heartbeat IPC: 2.396 cumulative IPC: 2.504 (Simulation time: 01 hr 12 min 12 sec)
Heartbeat CPU 0 instructions: 180000001 cycles: 63882371 heartbeat IPC: 2.89 cumulative IPC: 2.53 (Simulation time: 01 hr 16 min 36 sec)
Heartbeat CPU 0 instructions: 190000002 cycles: 67465761 heartbeat IPC: 2.791 cumulative IPC: 2.547 (Simulation time: 01 hr 21 min 04 sec)
Heartbeat CPU 0 instructions: 200000002 cycles: 71249161 heartbeat IPC: 2.643 cumulative IPC: 2.553 (Simulation time: 01 hr 25 min 38 sec)
Heartbeat CPU 0 instructions: 210000000 cycles: 74888079 heartbeat IPC: 2.748 cumulative IPC: 2.565 (Simulation time: 01 hr 30 min 04 sec)
Heartbeat CPU 0 instructions: 220000001 cycles: 78754029 heartbeat IPC: 2.587 cumulative IPC: 2.566 (Simulation time: 01 hr 34 min 39 sec)
Heartbeat CPU 0 instructions: 230000002 cycles: 82594747 heartbeat IPC: 2.604 cumulative IPC: 2.568 (Simulation time: 01 hr 39 min 12 sec)
Heartbeat CPU 0 instructions: 240000001 cycles: 86801493 heartbeat IPC: 2.377 cumulative IPC: 2.557 (Simulation time: 01 hr 43 min 57 sec)
Heartbeat CPU 0 instructions: 250000003 cycles: 91366485 heartbeat IPC: 2.191 cumulative IPC: 2.536 (Simulation time: 01 hr 48 min 50 sec)
Heartbeat CPU 0 instructions: 260000000 cycles: 95158973 heartbeat IPC: 2.637 cumulative IPC: 2.541 (Simulation time: 01 hr 53 min 24 sec)
Heartbeat CPU 0 instructions: 270000003 cycles: 102228918 heartbeat IPC: 1.414 cumulative IPC: 2.452 (Simulation time: 02 hr 00 min 04 sec)
Heartbeat CPU 0 instructions: 280000000 cycles: 112630929 heartbeat IPC: 0.9614 cumulative IPC: 2.297 (Simulation time: 02 hr 08 min 54 sec)
Heartbeat CPU 0 instructions: 290000000 cycles: 121811002 heartbeat IPC: 1.089 cumulative IPC: 2.196 (Simulation time: 02 hr 17 min 18 sec)
Heartbeat CPU 0 instructions: 300000003 cycles: 129011482 heartbeat IPC: 1.389 cumulative IPC: 2.146 (Simulation time: 02 hr 24 min 32 sec)
Heartbeat CPU 0 instructions: 310000004 cycles: 138985770 heartbeat IPC: 1.003 cumulative IPC: 2.056 (Simulation time: 02 hr 33 min 31 sec)
Heartbeat CPU 0 instructions: 320000004 cycles: 143894532 heartbeat IPC: 2.037 cumulative IPC: 2.055 (Simulation time: 02 hr 39 min 02 sec)
Heartbeat CPU 0 instructions: 330000000 cycles: 147896294 heartbeat IPC: 2.499 cumulative IPC: 2.068 (Simulation time: 02 hr 43 min 49 sec)
Heartbeat CPU 0 instructions: 340000001 cycles: 151740262 heartbeat IPC: 2.601 cumulative IPC: 2.083 (Simulation time: 02 hr 48 min 35 sec)
Heartbeat CPU 0 instructions: 350000004 cycles: 155675257 heartbeat IPC: 2.541 cumulative IPC: 2.095 (Simulation time: 02 hr 53 min 22 sec)
Heartbeat CPU 0 instructions: 360000003 cycles: 159343016 heartbeat IPC: 2.726 cumulative IPC: 2.111 (Simulation time: 02 hr 57 min 55 sec)
Heartbeat CPU 0 instructions: 370000001 cycles: 162991515 heartbeat IPC: 2.741 cumulative IPC: 2.126 (Simulation time: 03 hr 02 min 28 sec)
Heartbeat CPU 0 instructions: 380000004 cycles: 166512842 heartbeat IPC: 2.84 cumulative IPC: 2.143 (Simulation time: 03 hr 06 min 57 sec)
Heartbeat CPU 0 instructions: 390000002 cycles: 170058536 heartbeat IPC: 2.82 cumulative IPC: 2.158 (Simulation time: 03 hr 11 min 28 sec)
Heartbeat CPU 0 instructions: 400000000 cycles: 173872992 heartbeat IPC: 2.622 cumulative IPC: 2.169 (Simulation time: 03 hr 16 min 05 sec)
Heartbeat CPU 0 instructions: 410000000 cycles: 179298654 heartbeat IPC: 1.843 cumulative IPC: 2.158 (Simulation time: 03 hr 21 min 53 sec)
Heartbeat CPU 0 instructions: 420000003 cycles: 186057135 heartbeat IPC: 1.48 cumulative IPC: 2.132 (Simulation time: 03 hr 28 min 45 sec)
Heartbeat CPU 0 instructions: 430000000 cycles: 192525358 heartbeat IPC: 1.546 cumulative IPC: 2.111 (Simulation time: 03 hr 35 min 29 sec)
Heartbeat CPU 0 instructions: 440000004 cycles: 198522899 heartbeat IPC: 1.667 cumulative IPC: 2.097 (Simulation time: 03 hr 41 min 47 sec)
Heartbeat CPU 0 instructions: 450000001 cycles: 204755903 heartbeat IPC: 1.604 cumulative IPC: 2.081 (Simulation time: 03 hr 48 min 14 sec)
Heartbeat CPU 0 instructions: 460000002 cycles: 212102548 heartbeat IPC: 1.361 cumulative IPC: 2.054 (Simulation time: 03 hr 55 min 26 sec)
Heartbeat CPU 0 instructions: 470000003 cycles: 217889468 heartbeat IPC: 1.728 cumulative IPC: 2.045 (Simulation time: 04 hr 01 min 37 sec)
Heartbeat CPU 0 instructions: 480000003 cycles: 221613658 heartbeat IPC: 2.685 cumulative IPC: 2.056 (Simulation time: 04 hr 06 min 12 sec)
Heartbeat CPU 0 instructions: 490000001 cycles: 225455659 heartbeat IPC: 2.603 cumulative IPC: 2.066 (Simulation time: 04 hr 11 min 01 sec)
Heartbeat CPU 0 instructions: 500000002 cycles: 229128173 heartbeat IPC: 2.723 cumulative IPC: 2.077 (Simulation time: 04 hr 15 min 33 sec)
Heartbeat CPU 0 instructions: 510000000 cycles: 232626421 heartbeat IPC: 2.859 cumulative IPC: 2.09 (Simulation time: 04 hr 20 min 03 sec)
Heartbeat CPU 0 instructions: 520000000 cycles: 236252268 heartbeat IPC: 2.758 cumulative IPC: 2.101 (Simulation time: 04 hr 24 min 36 sec)
Heartbeat CPU 0 instructions: 530000001 cycles: 242932769 heartbeat IPC: 1.497 cumulative IPC: 2.083 (Simulation time: 04 hr 31 min 15 sec)
Heartbeat CPU 0 instructions: 540000000 cycles: 249759638 heartbeat IPC: 1.465 cumulative IPC: 2.065 (Simulation time: 04 hr 38 min 04 sec)
Heartbeat CPU 0 instructions: 550000004 cycles: 256616740 heartbeat IPC: 1.458 cumulative IPC: 2.048 (Simulation time: 04 hr 44 min 51 sec)
Heartbeat CPU 0 instructions: 560000004 cycles: 260394247 heartbeat IPC: 2.647 cumulative IPC: 2.057 (Simulation time: 04 hr 49 min 26 sec)
Heartbeat CPU 0 instructions: 570000001 cycles: 263467619 heartbeat IPC: 3.254 cumulative IPC: 2.072 (Simulation time: 04 hr 53 min 43 sec)
Heartbeat CPU 0 instructions: 580000003 cycles: 266901337 heartbeat IPC: 2.912 cumulative IPC: 2.083 (Simulation time: 04 hr 58 min 06 sec)
Heartbeat CPU 0 instructions: 590000002 cycles: 270431166 heartbeat IPC: 2.833 cumulative IPC: 2.094 (Simulation time: 05 hr 02 min 34 sec)
Heartbeat CPU 0 instructions: 600000003 cycles: 273444165 heartbeat IPC: 3.319 cumulative IPC: 2.108 (Simulation time: 05 hr 06 min 49 sec)
Heartbeat CPU 0 instructions: 610000001 cycles: 276884696 heartbeat IPC: 2.907 cumulative IPC: 2.118 (Simulation time: 05 hr 11 min 16 sec)
Heartbeat CPU 0 instructions: 620000000 cycles: 280844055 heartbeat IPC: 2.526 cumulative IPC: 2.124 (Simulation time: 05 hr 15 min 56 sec)
Heartbeat CPU 0 instructions: 630000002 cycles: 284170328 heartbeat IPC: 3.006 cumulative IPC: 2.135 (Simulation time: 05 hr 20 min 19 sec)
Heartbeat CPU 0 instructions: 640000004 cycles: 288135563 heartbeat IPC: 2.522 cumulative IPC: 2.141 (Simulation time: 05 hr 25 min 12 sec)
Heartbeat CPU 0 instructions: 650000001 cycles: 291937259 heartbeat IPC: 2.63 cumulative IPC: 2.147 (Simulation time: 05 hr 29 min 49 sec)
Simulation finished CPU 0 instructions: 600000001 cycles: 279437198 cumulative IPC: 2.147 (Simulation time: 05 hr 29 min 49 sec)
Simulation complete CPU 0 instructions: 600000001 cycles: 279437198 cumulative IPC: 2.147 (Simulation time: 05 hr 29 min 49 sec)

ChampSim completed all CPUs

=== Simulation ===
CPU 0 runs traces/400.perlbench-50B.champsimtrace.xz
Region of Interest Statistics

CPU 0 cumulative IPC: 2.147 instructions: 600000001 cycles: 279437198
CPU 0 Branch Prediction Accuracy: 96.2% MPKI: 7.839 Average ROB Occupancy at Mispredict: 43.04
Branch type MPKI
BRANCH_DIRECT_JUMP: 0.0176
BRANCH_INDIRECT: 0.38
BRANCH_CONDITIONAL: 6.99
BRANCH_DIRECT_CALL: 0.0067
BRANCH_INDIRECT_CALL: 0.431
BRANCH_RETURN: 0.0161

LLC TOTAL        ACCESS:     837853 HIT:     719073 MISS:     118780
LLC LOAD         ACCESS:     576514 HIT:     486620 MISS:      89894
LLC RFO          ACCESS:      47515 HIT:      38219 MISS:       9296
LLC PREFETCH     ACCESS:      64305 HIT:      54016 MISS:      10289
LLC WRITE        ACCESS:     127429 HIT:     127300 MISS:        129
LLC TRANSLATION  ACCESS:      22090 HIT:      12918 MISS:       9172
LLC PREFETCH REQUESTED:      64305 ISSUED:      64305 USEFUL:       6304 USELESS:        318
LLC AVERAGE MISS LATENCY: 473.5 cycles
cpu0_DTLB TOTAL        ACCESS:  146522450 HIT:  145217972 MISS:    1304478
cpu0_DTLB LOAD         ACCESS:  146522450 HIT:  145217972 MISS:    1304478
cpu0_DTLB RFO          ACCESS:          0 HIT:          0 MISS:          0
cpu0_DTLB PREFETCH     ACCESS:          0 HIT:          0 MISS:          0
cpu0_DTLB WRITE        ACCESS:          0 HIT:          0 MISS:          0
cpu0_DTLB TRANSLATION  ACCESS:          0 HIT:          0 MISS:          0
cpu0_DTLB PREFETCH REQUESTED:          0 ISSUED:          0 USEFUL:          0 USELESS:          0
cpu0_DTLB AVERAGE MISS LATENCY: 9.773 cycles
cpu0_ITLB TOTAL        ACCESS:    8984694 HIT:    8800200 MISS:     184494
cpu0_ITLB LOAD         ACCESS:    8984694 HIT:    8800200 MISS:     184494
cpu0_ITLB RFO          ACCESS:          0 HIT:          0 MISS:          0
cpu0_ITLB PREFETCH     ACCESS:          0 HIT:          0 MISS:          0
cpu0_ITLB WRITE        ACCESS:          0 HIT:          0 MISS:          0
cpu0_ITLB TRANSLATION  ACCESS:          0 HIT:          0 MISS:          0
cpu0_ITLB PREFETCH REQUESTED:          0 ISSUED:          0 USEFUL:          0 USELESS:          0
cpu0_ITLB AVERAGE MISS LATENCY: 2.85 cycles
cpu0_L1D TOTAL        ACCESS:  193323789 HIT:  189698736 MISS:    3625053
cpu0_L1D LOAD         ACCESS:  107477868 HIT:  104487795 MISS:    2990073
cpu0_L1D RFO          ACCESS:          0 HIT:          0 MISS:          0
cpu0_L1D PREFETCH     ACCESS:          0 HIT:          0 MISS:          0
cpu0_L1D WRITE        ACCESS:   85817398 HIT:   85209518 MISS:     607880
cpu0_L1D TRANSLATION  ACCESS:      28523 HIT:       1423 MISS:      27100
cpu0_L1D PREFETCH REQUESTED:          0 ISSUED:          0 USEFUL:          0 USELESS:          0
cpu0_L1D AVERAGE MISS LATENCY: 20.77 cycles
cpu0_L1I TOTAL        ACCESS:   10419171 HIT:    8657337 MISS:    1761834
cpu0_L1I LOAD         ACCESS:   10419171 HIT:    8657337 MISS:    1761834
cpu0_L1I RFO          ACCESS:          0 HIT:          0 MISS:          0
cpu0_L1I PREFETCH     ACCESS:          0 HIT:          0 MISS:          0
cpu0_L1I WRITE        ACCESS:          0 HIT:          0 MISS:          0
cpu0_L1I TRANSLATION  ACCESS:          0 HIT:          0 MISS:          0
cpu0_L1I PREFETCH REQUESTED:          0 ISSUED:          0 USEFUL:          0 USELESS:          0
cpu0_L1I AVERAGE MISS LATENCY: 9.364 cycles
cpu0_L2C TOTAL        ACCESS:    3834989 HIT:    3185704 MISS:     649285
cpu0_L2C LOAD         ACCESS:    3105085 HIT:    2528571 MISS:     576514
cpu0_L2C RFO          ACCESS:     191502 HIT:     143985 MISS:      47517
cpu0_L2C PREFETCH     ACCESS:          0 HIT:          0 MISS:          0
cpu0_L2C WRITE        ACCESS:     511369 HIT:     508205 MISS:       3164
cpu0_L2C TRANSLATION  ACCESS:      27033 HIT:       4943 MISS:      22090
cpu0_L2C PREFETCH REQUESTED:          0 ISSUED:          0 USEFUL:          0 USELESS:          0
cpu0_L2C AVERAGE MISS LATENCY: 98.73 cycles
cpu0_STLB TOTAL        ACCESS:    1008098 HIT:     981404 MISS:      26694
cpu0_STLB LOAD         ACCESS:    1008098 HIT:     981404 MISS:      26694
cpu0_STLB RFO          ACCESS:          0 HIT:          0 MISS:          0
cpu0_STLB PREFETCH     ACCESS:          0 HIT:          0 MISS:          0
cpu0_STLB WRITE        ACCESS:          0 HIT:          0 MISS:          0
cpu0_STLB TRANSLATION  ACCESS:          0 HIT:          0 MISS:          0
cpu0_STLB PREFETCH REQUESTED:          0 ISSUED:          0 USEFUL:          0 USELESS:          0
cpu0_STLB AVERAGE MISS LATENCY: 250.4 cycles

DRAM Statistics

Channel 0 RQ ROW_BUFFER_HIT:      36689
  ROW_BUFFER_MISS:      80188
 AVG DBUS CONGESTED CYCLE: 3.734
WQ ROW_BUFFER_HIT: Channel 0 
  ROW_BUFFER_MISS:        575
  FULL:        963
