WARNING: physical memory size is smaller than virtual memory size.

*** ChampSim Multicore Out-of-Order Simulator ***
Warmup Instructions: 50000000
Simulation Instructions: 600000000
Number of CPUs: 1
Page size: 4096

Off-chip DRAM Size: 4 GiB Channels: 1 Width: 64-bit Data Race: 3200 MT/s
Heartbeat CPU 0 instructions: 10000001 cycles: 2500318 heartbeat IPC: 3.999 cumulative IPC: 3.999 (Simulation time: 00 hr 00 min 44 sec)
Heartbeat CPU 0 instructions: 20000002 cycles: 5037114 heartbeat IPC: 3.942 cumulative IPC: 3.971 (Simulation time: 00 hr 01 min 40 sec)
Heartbeat CPU 0 instructions: 30000002 cycles: 7537114 heartbeat IPC: 4 cumulative IPC: 3.98 (Simulation time: 00 hr 03 min 02 sec)
Heartbeat CPU 0 instructions: 40000002 cycles: 10037114 heartbeat IPC: 4 cumulative IPC: 3.985 (Simulation time: 00 hr 04 min 46 sec)
Heartbeat CPU 0 instructions: 50000002 cycles: 12537114 heartbeat IPC: 4 cumulative IPC: 3.988 (Simulation time: 00 hr 06 min 42 sec)
Warmup finished CPU 0 instructions: 50000002 cycles: 12537115 cumulative IPC: 3.988 (Simulation time: 00 hr 06 min 42 sec)
Warmup complete CPU 0 instructions: 50000002 cycles: 12537115 cumulative IPC: 3.988 (Simulation time: 00 hr 06 min 42 sec)
Heartbeat CPU 0 instructions: 60000000 cycles: 17679767 heartbeat IPC: 1.945 cumulative IPC: 1.945 (Simulation time: 00 hr 10 min 16 sec)
Heartbeat CPU 0 instructions: 70000002 cycles: 22548020 heartbeat IPC: 2.054 cumulative IPC: 1.998 (Simulation time: 00 hr 13 min 42 sec)
Heartbeat CPU 0 instructions: 80000001 cycles: 27882236 heartbeat IPC: 1.875 cumulative IPC: 1.955 (Simulation time: 00 hr 17 min 26 sec)
Heartbeat CPU 0 instructions: 90000001 cycles: 32727320 heartbeat IPC: 2.064 cumulative IPC: 1.981 (Simulation time: 00 hr 20 min 47 sec)
Heartbeat CPU 0 instructions: 100000000 cycles: 37810771 heartbeat IPC: 1.967 cumulative IPC: 1.978 (Simulation time: 00 hr 24 min 15 sec)
Heartbeat CPU 0 instructions: 110000000 cycles: 42670355 heartbeat IPC: 2.058 cumulative IPC: 1.991 (Simulation time: 00 hr 27 min 36 sec)
Heartbeat CPU 0 instructions: 120000001 cycles: 47840214 heartbeat IPC: 1.934 cumulative IPC: 1.983 (Simulation time: 00 hr 31 min 14 sec)
Heartbeat CPU 0 instructions: 130000001 cycles: 52965189 heartbeat IPC: 1.951 cumulative IPC: 1.979 (Simulation time: 00 hr 34 min 41 sec)
Heartbeat CPU 0 instructions: 140000001 cycles: 58239456 heartbeat IPC: 1.896 cumulative IPC: 1.969 (Simulation time: 00 hr 38 min 19 sec)
Heartbeat CPU 0 instructions: 150000001 cycles: 63521495 heartbeat IPC: 1.893 cumulative IPC: 1.961 (Simulation time: 00 hr 41 min 51 sec)
Heartbeat CPU 0 instructions: 160000004 cycles: 68691758 heartbeat IPC: 1.934 cumulative IPC: 1.959 (Simulation time: 00 hr 45 min 29 sec)
Heartbeat CPU 0 instructions: 170000000 cycles: 76036770 heartbeat IPC: 1.361 cumulative IPC: 1.89 (Simulation time: 00 hr 50 min 04 sec)
Heartbeat CPU 0 instructions: 180000004 cycles: 82529413 heartbeat IPC: 1.54 cumulative IPC: 1.857 (Simulation time: 00 hr 54 min 29 sec)
Heartbeat CPU 0 instructions: 190000001 cycles: 88823117 heartbeat IPC: 1.589 cumulative IPC: 1.835 (Simulation time: 00 hr 58 min 41 sec)
Heartbeat CPU 0 instructions: 200000003 cycles: 93309464 heartbeat IPC: 2.229 cumulative IPC: 1.857 (Simulation time: 01 hr 02 min 04 sec)
Heartbeat CPU 0 instructions: 210000001 cycles: 98015061 heartbeat IPC: 2.125 cumulative IPC: 1.872 (Simulation time: 01 hr 05 min 24 sec)
Heartbeat CPU 0 instructions: 220000000 cycles: 102709978 heartbeat IPC: 2.13 cumulative IPC: 1.885 (Simulation time: 01 hr 08 min 44 sec)
Heartbeat CPU 0 instructions: 230000002 cycles: 107588337 heartbeat IPC: 2.05 cumulative IPC: 1.894 (Simulation time: 01 hr 12 min 15 sec)
Heartbeat CPU 0 instructions: 240000000 cycles: 112169321 heartbeat IPC: 2.183 cumulative IPC: 1.907 (Simulation time: 01 hr 15 min 31 sec)
Heartbeat CPU 0 instructions: 250000000 cycles: 117008224 heartbeat IPC: 2.067 cumulative IPC: 1.914 (Simulation time: 01 hr 18 min 59 sec)
Heartbeat CPU 0 instructions: 260000000 cycles: 121717616 heartbeat IPC: 2.123 cumulative IPC: 1.923 (Simulation time: 01 hr 22 min 17 sec)
Heartbeat CPU 0 instructions: 270000002 cycles: 126388154 heartbeat IPC: 2.141 cumulative IPC: 1.932 (Simulation time: 01 hr 25 min 37 sec)
Heartbeat CPU 0 instructions: 280000002 cycles: 131054506 heartbeat IPC: 2.143 cumulative IPC: 1.941 (Simulation time: 01 hr 29 min 01 sec)
Heartbeat CPU 0 instructions: 290000001 cycles: 136223990 heartbeat IPC: 1.934 cumulative IPC: 1.94 (Simulation time: 01 hr 32 min 28 sec)
Heartbeat CPU 0 instructions: 300000003 cycles: 140983046 heartbeat IPC: 2.101 cumulative IPC: 1.946 (Simulation time: 01 hr 35 min 57 sec)
Heartbeat CPU 0 instructions: 310000001 cycles: 145930662 heartbeat IPC: 2.021 cumulative IPC: 1.949 (Simulation time: 01 hr 39 min 18 sec)
Heartbeat CPU 0 instructions: 320000003 cycles: 150882013 heartbeat IPC: 2.02 cumulative IPC: 1.952 (Simulation time: 01 hr 42 min 44 sec)
Heartbeat CPU 0 instructions: 330000003 cycles: 155811724 heartbeat IPC: 2.029 cumulative IPC: 1.954 (Simulation time: 01 hr 46 min 17 sec)
Heartbeat CPU 0 instructions: 340000000 cycles: 162304399 heartbeat IPC: 1.54 cumulative IPC: 1.936 (Simulation time: 01 hr 50 min 34 sec)
Heartbeat CPU 0 instructions: 350000000 cycles: 169127630 heartbeat IPC: 1.466 cumulative IPC: 1.916 (Simulation time: 01 hr 55 min 02 sec)
Heartbeat CPU 0 instructions: 360000004 cycles: 175574567 heartbeat IPC: 1.551 cumulative IPC: 1.901 (Simulation time: 01 hr 59 min 17 sec)
Heartbeat CPU 0 instructions: 370000000 cycles: 179777716 heartbeat IPC: 2.379 cumulative IPC: 1.913 (Simulation time: 02 hr 02 min 11 sec)
Heartbeat CPU 0 instructions: 380000001 cycles: 184506836 heartbeat IPC: 2.115 cumulative IPC: 1.919 (Simulation time: 02 hr 05 min 04 sec)
Heartbeat CPU 0 instructions: 390000002 cycles: 189192159 heartbeat IPC: 2.134 cumulative IPC: 1.925 (Simulation time: 02 hr 07 min 54 sec)
Heartbeat CPU 0 instructions: 400000004 cycles: 194035111 heartbeat IPC: 2.065 cumulative IPC: 1.928 (Simulation time: 02 hr 10 min 50 sec)
Heartbeat CPU 0 instructions: 410000000 cycles: 198530148 heartbeat IPC: 2.225 cumulative IPC: 1.936 (Simulation time: 02 hr 13 min 37 sec)
Heartbeat CPU 0 instructions: 420000000 cycles: 203309283 heartbeat IPC: 2.092 cumulative IPC: 1.939 (Simulation time: 02 hr 16 min 29 sec)
Heartbeat CPU 0 instructions: 430000001 cycles: 207598227 heartbeat IPC: 2.332 cumulative IPC: 1.948 (Simulation time: 02 hr 19 min 15 sec)
Heartbeat CPU 0 instructions: 440000000 cycles: 212683323 heartbeat IPC: 1.967 cumulative IPC: 1.949 (Simulation time: 02 hr 22 min 14 sec)
Heartbeat CPU 0 instructions: 450000002 cycles: 217114539 heartbeat IPC: 2.257 cumulative IPC: 1.955 (Simulation time: 02 hr 25 min 00 sec)
Heartbeat CPU 0 instructions: 460000000 cycles: 221701404 heartbeat IPC: 2.18 cumulative IPC: 1.96 (Simulation time: 02 hr 27 min 47 sec)
Heartbeat CPU 0 instructions: 470000000 cycles: 226497176 heartbeat IPC: 2.085 cumulative IPC: 1.963 (Simulation time: 02 hr 30 min 40 sec)
Heartbeat CPU 0 instructions: 480000003 cycles: 231058650 heartbeat IPC: 2.192 cumulative IPC: 1.968 (Simulation time: 02 hr 33 min 27 sec)
Heartbeat CPU 0 instructions: 490000000 cycles: 235528336 heartbeat IPC: 2.237 cumulative IPC: 1.973 (Simulation time: 02 hr 36 min 15 sec)
Heartbeat CPU 0 instructions: 500000000 cycles: 240411339 heartbeat IPC: 2.048 cumulative IPC: 1.975 (Simulation time: 02 hr 39 min 11 sec)
Heartbeat CPU 0 instructions: 510000003 cycles: 245803244 heartbeat IPC: 1.855 cumulative IPC: 1.972 (Simulation time: 02 hr 42 min 17 sec)
Heartbeat CPU 0 instructions: 520000001 cycles: 250243182 heartbeat IPC: 2.252 cumulative IPC: 1.977 (Simulation time: 02 hr 45 min 04 sec)
Heartbeat CPU 0 instructions: 530000002 cycles: 255180668 heartbeat IPC: 2.025 cumulative IPC: 1.978 (Simulation time: 02 hr 48 min 01 sec)
Heartbeat CPU 0 instructions: 540000000 cycles: 260094080 heartbeat IPC: 2.035 cumulative IPC: 1.979 (Simulation time: 02 hr 50 min 54 sec)
Heartbeat CPU 0 instructions: 550000001 cycles: 264735702 heartbeat IPC: 2.154 cumulative IPC: 1.983 (Simulation time: 02 hr 53 min 46 sec)
Heartbeat CPU 0 instructions: 560000000 cycles: 269652794 heartbeat IPC: 2.034 cumulative IPC: 1.984 (Simulation time: 02 hr 56 min 42 sec)
Heartbeat CPU 0 instructions: 570000004 cycles: 275031026 heartbeat IPC: 1.859 cumulative IPC: 1.981 (Simulation time: 02 hr 59 min 54 sec)
Heartbeat CPU 0 instructions: 580000003 cycles: 282081909 heartbeat IPC: 1.418 cumulative IPC: 1.966 (Simulation time: 03 hr 03 min 43 sec)
Heartbeat CPU 0 instructions: 590000002 cycles: 289424800 heartbeat IPC: 1.362 cumulative IPC: 1.95 (Simulation time: 03 hr 07 min 41 sec)
Heartbeat CPU 0 instructions: 600000000 cycles: 293768153 heartbeat IPC: 2.302 cumulative IPC: 1.956 (Simulation time: 03 hr 10 min 17 sec)
Heartbeat CPU 0 instructions: 610000002 cycles: 298074368 heartbeat IPC: 2.322 cumulative IPC: 1.961 (Simulation time: 03 hr 12 min 51 sec)
Heartbeat CPU 0 instructions: 620000000 cycles: 302776771 heartbeat IPC: 2.127 cumulative IPC: 1.964 (Simulation time: 03 hr 15 min 19 sec)
Heartbeat CPU 0 instructions: 630000002 cycles: 307703935 heartbeat IPC: 2.03 cumulative IPC: 1.965 (Simulation time: 03 hr 17 min 44 sec)
Heartbeat CPU 0 instructions: 640000001 cycles: 312490337 heartbeat IPC: 2.089 cumulative IPC: 1.967 (Simulation time: 03 hr 20 min 00 sec)
Heartbeat CPU 0 instructions: 650000000 cycles: 316982597 heartbeat IPC: 2.226 cumulative IPC: 1.971 (Simulation time: 03 hr 22 min 03 sec)
Simulation finished CPU 0 instructions: 600000001 cycles: 304445484 cumulative IPC: 1.971 (Simulation time: 03 hr 22 min 03 sec)
Simulation complete CPU 0 instructions: 600000001 cycles: 304445484 cumulative IPC: 1.971 (Simulation time: 03 hr 22 min 03 sec)

ChampSim completed all CPUs

=== Simulation ===
CPU 0 runs traces/400.perlbench-41B.champsimtrace.xz
Region of Interest Statistics

CPU 0 cumulative IPC: 1.971 instructions: 600000001 cycles: 304445484
CPU 0 Branch Prediction Accuracy: 93.95% MPKI: 12.5 Average ROB Occupancy at Mispredict: 29.24
Branch type MPKI
BRANCH_DIRECT_JUMP: 0.0123
BRANCH_INDIRECT: 0.323
BRANCH_CONDITIONAL: 12
BRANCH_DIRECT_CALL: 0.0043
BRANCH_INDIRECT_CALL: 0.2
BRANCH_RETURN: 0.00828

LLC TOTAL        ACCESS:     939977 HIT:     853026 MISS:      86951
LLC LOAD         ACCESS:     401299 HIT:     367635 MISS:      33664
LLC RFO          ACCESS:      32798 HIT:      28536 MISS:       4262
LLC PREFETCH     ACCESS:     401299 HIT:     359142 MISS:      42157
LLC WRITE        ACCESS:      85487 HIT:      85391 MISS:         96
LLC TRANSLATION  ACCESS:      19094 HIT:      12322 MISS:       6772
LLC PREFETCH REQUESTED:     401299 ISSUED:     401299 USEFUL:      11381 USELESS:      16150
LLC AVERAGE MISS LATENCY: 479.8 cycles
cpu0_DTLB TOTAL        ACCESS:  153698659 HIT:  153022335 MISS:     676324
cpu0_DTLB LOAD         ACCESS:  153698659 HIT:  153022335 MISS:     676324
cpu0_DTLB RFO          ACCESS:          0 HIT:          0 MISS:          0
cpu0_DTLB PREFETCH     ACCESS:          0 HIT:          0 MISS:          0
cpu0_DTLB WRITE        ACCESS:          0 HIT:          0 MISS:          0
cpu0_DTLB TRANSLATION  ACCESS:          0 HIT:          0 MISS:          0
cpu0_DTLB PREFETCH REQUESTED:          0 ISSUED:          0 USEFUL:          0 USELESS:          0
cpu0_DTLB AVERAGE MISS LATENCY: 11.13 cycles
cpu0_ITLB TOTAL        ACCESS:    4838894 HIT:    4780977 MISS:      57917
cpu0_ITLB LOAD         ACCESS:    4838894 HIT:    4780977 MISS:      57917
cpu0_ITLB RFO          ACCESS:          0 HIT:          0 MISS:          0
cpu0_ITLB PREFETCH     ACCESS:          0 HIT:          0 MISS:          0
cpu0_ITLB WRITE        ACCESS:          0 HIT:          0 MISS:          0
cpu0_ITLB TRANSLATION  ACCESS:          0 HIT:          0 MISS:          0
cpu0_ITLB PREFETCH REQUESTED:          0 ISSUED:          0 USEFUL:          0 USELESS:          0
cpu0_ITLB AVERAGE MISS LATENCY: 4.662 cycles
cpu0_L1D TOTAL        ACCESS:  200332033 HIT:  198651991 MISS:    1680042
cpu0_L1D LOAD         ACCESS:  117088918 HIT:  115776471 MISS:    1312447
cpu0_L1D RFO          ACCESS:          0 HIT:          0 MISS:          0
cpu0_L1D PREFETCH     ACCESS:          0 HIT:          0 MISS:          0
cpu0_L1D WRITE        ACCESS:   83218653 HIT:   82874478 MISS:     344175
cpu0_L1D TRANSLATION  ACCESS:      24462 HIT:       1042 MISS:      23420
cpu0_L1D PREFETCH REQUESTED:          0 ISSUED:          0 USEFUL:          0 USELESS:          0
cpu0_L1D AVERAGE MISS LATENCY: 22.39 cycles
cpu0_L1I TOTAL        ACCESS:    5581103 HIT:    4819594 MISS:     761509
cpu0_L1I LOAD         ACCESS:    5581103 HIT:    4819594 MISS:     761509
cpu0_L1I RFO          ACCESS:          0 HIT:          0 MISS:          0
cpu0_L1I PREFETCH     ACCESS:          0 HIT:          0 MISS:          0
cpu0_L1I WRITE        ACCESS:          0 HIT:          0 MISS:          0
cpu0_L1I TRANSLATION  ACCESS:          0 HIT:          0 MISS:          0
cpu0_L1I PREFETCH REQUESTED:          0 ISSUED:          0 USEFUL:          0 USELESS:          0
cpu0_L1I AVERAGE MISS LATENCY: 8.778 cycles
cpu0_L2C TOTAL        ACCESS:    1668144 HIT:    1213117 MISS:     455027
cpu0_L2C LOAD         ACCESS:    1317213 HIT:     915914 MISS:     401299
cpu0_L2C RFO          ACCESS:      88567 HIT:      55769 MISS:      32798
cpu0_L2C PREFETCH     ACCESS:          0 HIT:          0 MISS:          0
cpu0_L2C WRITE        ACCESS:     239020 HIT:     237184 MISS:       1836
cpu0_L2C TRANSLATION  ACCESS:      23344 HIT:       4250 MISS:      19094
cpu0_L2C PREFETCH REQUESTED:          0 ISSUED:          0 USEFUL:          0 USELESS:          0
cpu0_L2C AVERAGE MISS LATENCY: 71.39 cycles
cpu0_STLB TOTAL        ACCESS:     505077 HIT:     482288 MISS:      22789
cpu0_STLB LOAD         ACCESS:     505077 HIT:     482288 MISS:      22789
cpu0_STLB RFO          ACCESS:          0 HIT:          0 MISS:          0
cpu0_STLB PREFETCH     ACCESS:          0 HIT:          0 MISS:          0
cpu0_STLB WRITE        ACCESS:          0 HIT:          0 MISS:          0
cpu0_STLB TRANSLATION  ACCESS:          0 HIT:          0 MISS:          0
cpu0_STLB PREFETCH REQUESTED:          0 ISSUED:          0 USEFUL:          0 USELESS:          0
cpu0_STLB AVERAGE MISS LATENCY: 197.2 cycles

DRAM Statistics

Channel 0 RQ ROW_BUFFER_HIT:      18008
  ROW_BUFFER_MISS:      56504
 AVG DBUS CONGESTED CYCLE: 3.792
WQ ROW_BUFFER_HIT: Channel 0 
  ROW_BUFFER_MISS:       1136
  FULL:       1743
