WARNING: physical memory size is smaller than virtual memory size.

*** ChampSim Multicore Out-of-Order Simulator ***
Warmup Instructions: 50000000
Simulation Instructions: 600000000
Number of CPUs: 1
Page size: 4096

Off-chip DRAM Size: 4 GiB Channels: 1 Width: 64-bit Data Race: 3200 MT/s
Heartbeat CPU 0 instructions: 10000001 cycles: 2500318 heartbeat IPC: 3.999 cumulative IPC: 3.999 (Simulation time: 00 hr 03 min 36 sec)
Heartbeat CPU 0 instructions: 20000002 cycles: 5037092 heartbeat IPC: 3.942 cumulative IPC: 3.971 (Simulation time: 00 hr 07 min 17 sec)
Heartbeat CPU 0 instructions: 30000002 cycles: 7537092 heartbeat IPC: 4 cumulative IPC: 3.98 (Simulation time: 00 hr 10 min 38 sec)
Heartbeat CPU 0 instructions: 40000002 cycles: 10037092 heartbeat IPC: 4 cumulative IPC: 3.985 (Simulation time: 00 hr 14 min 02 sec)
Heartbeat CPU 0 instructions: 50000002 cycles: 12537092 heartbeat IPC: 4 cumulative IPC: 3.988 (Simulation time: 00 hr 17 min 15 sec)
Warmup finished CPU 0 instructions: 50000002 cycles: 12537093 cumulative IPC: 3.988 (Simulation time: 00 hr 17 min 15 sec)
Warmup complete CPU 0 instructions: 50000002 cycles: 12537093 cumulative IPC: 3.988 (Simulation time: 00 hr 17 min 15 sec)
Heartbeat CPU 0 instructions: 60000000 cycles: 17136535 heartbeat IPC: 2.174 cumulative IPC: 2.174 (Simulation time: 00 hr 21 min 48 sec)
Heartbeat CPU 0 instructions: 70000004 cycles: 21398269 heartbeat IPC: 2.346 cumulative IPC: 2.257 (Simulation time: 00 hr 25 min 51 sec)
Heartbeat CPU 0 instructions: 80000001 cycles: 25978077 heartbeat IPC: 2.183 cumulative IPC: 2.232 (Simulation time: 00 hr 29 min 49 sec)
Heartbeat CPU 0 instructions: 90000001 cycles: 30092827 heartbeat IPC: 2.43 cumulative IPC: 2.278 (Simulation time: 00 hr 33 min 34 sec)
Heartbeat CPU 0 instructions: 100000000 cycles: 34138979 heartbeat IPC: 2.471 cumulative IPC: 2.315 (Simulation time: 00 hr 37 min 02 sec)
Heartbeat CPU 0 instructions: 110000000 cycles: 38371766 heartbeat IPC: 2.363 cumulative IPC: 2.322 (Simulation time: 00 hr 40 min 29 sec)
Heartbeat CPU 0 instructions: 120000001 cycles: 42377116 heartbeat IPC: 2.497 cumulative IPC: 2.346 (Simulation time: 00 hr 43 min 44 sec)
Heartbeat CPU 0 instructions: 130000001 cycles: 46104341 heartbeat IPC: 2.683 cumulative IPC: 2.383 (Simulation time: 00 hr 46 min 50 sec)
Heartbeat CPU 0 instructions: 140000001 cycles: 50254077 heartbeat IPC: 2.41 cumulative IPC: 2.386 (Simulation time: 00 hr 50 min 02 sec)
Heartbeat CPU 0 instructions: 150000001 cycles: 54443147 heartbeat IPC: 2.387 cumulative IPC: 2.386 (Simulation time: 00 hr 53 min 03 sec)
Heartbeat CPU 0 instructions: 160000004 cycles: 58844635 heartbeat IPC: 2.272 cumulative IPC: 2.375 (Simulation time: 00 hr 56 min 12 sec)
Heartbeat CPU 0 instructions: 170000004 cycles: 67676346 heartbeat IPC: 1.132 cumulative IPC: 2.176 (Simulation time: 01 hr 01 min 07 sec)
Heartbeat CPU 0 instructions: 180000004 cycles: 76919129 heartbeat IPC: 1.082 cumulative IPC: 2.019 (Simulation time: 01 hr 06 min 19 sec)
Heartbeat CPU 0 instructions: 190000001 cycles: 86571573 heartbeat IPC: 1.036 cumulative IPC: 1.891 (Simulation time: 01 hr 11 min 41 sec)
Heartbeat CPU 0 instructions: 200000004 cycles: 90325730 heartbeat IPC: 2.664 cumulative IPC: 1.928 (Simulation time: 01 hr 14 min 34 sec)
Heartbeat CPU 0 instructions: 210000001 cycles: 94220248 heartbeat IPC: 2.568 cumulative IPC: 1.959 (Simulation time: 01 hr 17 min 33 sec)
Heartbeat CPU 0 instructions: 220000000 cycles: 98165648 heartbeat IPC: 2.535 cumulative IPC: 1.985 (Simulation time: 01 hr 20 min 33 sec)
Heartbeat CPU 0 instructions: 230000002 cycles: 102794071 heartbeat IPC: 2.161 cumulative IPC: 1.994 (Simulation time: 01 hr 23 min 43 sec)
Heartbeat CPU 0 instructions: 240000000 cycles: 106961455 heartbeat IPC: 2.4 cumulative IPC: 2.012 (Simulation time: 01 hr 26 min 46 sec)
Heartbeat CPU 0 instructions: 250000000 cycles: 111251890 heartbeat IPC: 2.331 cumulative IPC: 2.026 (Simulation time: 01 hr 29 min 56 sec)
Heartbeat CPU 0 instructions: 260000000 cycles: 115404466 heartbeat IPC: 2.408 cumulative IPC: 2.041 (Simulation time: 01 hr 33 min 07 sec)
Heartbeat CPU 0 instructions: 270000002 cycles: 119234376 heartbeat IPC: 2.611 cumulative IPC: 2.062 (Simulation time: 01 hr 36 min 06 sec)
Heartbeat CPU 0 instructions: 280000002 cycles: 123377853 heartbeat IPC: 2.413 cumulative IPC: 2.075 (Simulation time: 01 hr 39 min 01 sec)
Heartbeat CPU 0 instructions: 290000001 cycles: 127255589 heartbeat IPC: 2.579 cumulative IPC: 2.092 (Simulation time: 01 hr 41 min 55 sec)
Heartbeat CPU 0 instructions: 300000003 cycles: 131051553 heartbeat IPC: 2.634 cumulative IPC: 2.109 (Simulation time: 01 hr 44 min 51 sec)
Heartbeat CPU 0 instructions: 310000001 cycles: 135146842 heartbeat IPC: 2.442 cumulative IPC: 2.121 (Simulation time: 01 hr 47 min 55 sec)
Heartbeat CPU 0 instructions: 320000003 cycles: 139197822 heartbeat IPC: 2.469 cumulative IPC: 2.132 (Simulation time: 01 hr 50 min 52 sec)
Heartbeat CPU 0 instructions: 330000003 cycles: 143569640 heartbeat IPC: 2.287 cumulative IPC: 2.137 (Simulation time: 01 hr 53 min 59 sec)
Heartbeat CPU 0 instructions: 340000000 cycles: 152502526 heartbeat IPC: 1.119 cumulative IPC: 2.072 (Simulation time: 01 hr 58 min 58 sec)
Heartbeat CPU 0 instructions: 350000000 cycles: 162171018 heartbeat IPC: 1.034 cumulative IPC: 2.005 (Simulation time: 02 hr 04 min 32 sec)
Heartbeat CPU 0 instructions: 360000004 cycles: 171865377 heartbeat IPC: 1.032 cumulative IPC: 1.946 (Simulation time: 02 hr 09 min 53 sec)
Heartbeat CPU 0 instructions: 370000000 cycles: 175289231 heartbeat IPC: 2.921 cumulative IPC: 1.966 (Simulation time: 02 hr 12 min 36 sec)
Heartbeat CPU 0 instructions: 380000001 cycles: 178688170 heartbeat IPC: 2.942 cumulative IPC: 1.986 (Simulation time: 02 hr 15 min 26 sec)
Heartbeat CPU 0 instructions: 390000004 cycles: 182422480 heartbeat IPC: 2.678 cumulative IPC: 2.001 (Simulation time: 02 hr 18 min 17 sec)
Heartbeat CPU 0 instructions: 400000004 cycles: 186222742 heartbeat IPC: 2.631 cumulative IPC: 2.015 (Simulation time: 02 hr 21 min 19 sec)
Heartbeat CPU 0 instructions: 410000001 cycles: 189858974 heartbeat IPC: 2.75 cumulative IPC: 2.03 (Simulation time: 02 hr 24 min 16 sec)
Heartbeat CPU 0 instructions: 420000003 cycles: 193890963 heartbeat IPC: 2.48 cumulative IPC: 2.04 (Simulation time: 02 hr 27 min 25 sec)
Heartbeat CPU 0 instructions: 430000001 cycles: 197542465 heartbeat IPC: 2.739 cumulative IPC: 2.054 (Simulation time: 02 hr 30 min 23 sec)
Heartbeat CPU 0 instructions: 440000004 cycles: 201606784 heartbeat IPC: 2.46 cumulative IPC: 2.063 (Simulation time: 02 hr 33 min 36 sec)
Heartbeat CPU 0 instructions: 450000002 cycles: 205327184 heartbeat IPC: 2.688 cumulative IPC: 2.075 (Simulation time: 02 hr 36 min 38 sec)
Heartbeat CPU 0 instructions: 460000000 cycles: 208978230 heartbeat IPC: 2.739 cumulative IPC: 2.087 (Simulation time: 02 hr 39 min 31 sec)
Heartbeat CPU 0 instructions: 470000000 cycles: 212431193 heartbeat IPC: 2.896 cumulative IPC: 2.101 (Simulation time: 02 hr 42 min 20 sec)
Heartbeat CPU 0 instructions: 480000003 cycles: 216252595 heartbeat IPC: 2.617 cumulative IPC: 2.111 (Simulation time: 02 hr 45 min 16 sec)
Heartbeat CPU 0 instructions: 490000000 cycles: 219879911 heartbeat IPC: 2.757 cumulative IPC: 2.122 (Simulation time: 02 hr 48 min 13 sec)
Heartbeat CPU 0 instructions: 500000000 cycles: 223575661 heartbeat IPC: 2.706 cumulative IPC: 2.132 (Simulation time: 02 hr 51 min 12 sec)
Heartbeat CPU 0 instructions: 510000003 cycles: 227256767 heartbeat IPC: 2.717 cumulative IPC: 2.142 (Simulation time: 02 hr 54 min 08 sec)
Heartbeat CPU 0 instructions: 520000001 cycles: 230650541 heartbeat IPC: 2.947 cumulative IPC: 2.155 (Simulation time: 02 hr 57 min 06 sec)
Heartbeat CPU 0 instructions: 530000002 cycles: 234320385 heartbeat IPC: 2.725 cumulative IPC: 2.164 (Simulation time: 03 hr 00 min 02 sec)
Heartbeat CPU 0 instructions: 540000000 cycles: 237829964 heartbeat IPC: 2.849 cumulative IPC: 2.175 (Simulation time: 03 hr 02 min 57 sec)
Heartbeat CPU 0 instructions: 550000001 cycles: 241514309 heartbeat IPC: 2.714 cumulative IPC: 2.184 (Simulation time: 03 hr 05 min 55 sec)
Heartbeat CPU 0 instructions: 560000000 cycles: 245489671 heartbeat IPC: 2.515 cumulative IPC: 2.189 (Simulation time: 03 hr 08 min 55 sec)
Heartbeat CPU 0 instructions: 570000004 cycles: 251586226 heartbeat IPC: 1.64 cumulative IPC: 2.175 (Simulation time: 03 hr 12 min 44 sec)
Heartbeat CPU 0 instructions: 580000003 cycles: 261651156 heartbeat IPC: 0.9935 cumulative IPC: 2.128 (Simulation time: 03 hr 18 min 06 sec)
Heartbeat CPU 0 instructions: 590000002 cycles: 273704085 heartbeat IPC: 0.8297 cumulative IPC: 2.068 (Simulation time: 03 hr 24 min 31 sec)
Heartbeat CPU 0 instructions: 600000000 cycles: 277449412 heartbeat IPC: 2.67 cumulative IPC: 2.076 (Simulation time: 03 hr 27 min 16 sec)
Heartbeat CPU 0 instructions: 610000000 cycles: 281288289 heartbeat IPC: 2.605 cumulative IPC: 2.084 (Simulation time: 03 hr 30 min 06 sec)
Heartbeat CPU 0 instructions: 620000001 cycles: 284713118 heartbeat IPC: 2.92 cumulative IPC: 2.094 (Simulation time: 03 hr 32 min 53 sec)
Heartbeat CPU 0 instructions: 630000002 cycles: 288972267 heartbeat IPC: 2.348 cumulative IPC: 2.098 (Simulation time: 03 hr 35 min 57 sec)
Heartbeat CPU 0 instructions: 640000001 cycles: 292862930 heartbeat IPC: 2.57 cumulative IPC: 2.105 (Simulation time: 03 hr 38 min 50 sec)
Heartbeat CPU 0 instructions: 650000000 cycles: 296613739 heartbeat IPC: 2.666 cumulative IPC: 2.112 (Simulation time: 03 hr 41 min 27 sec)
Simulation finished CPU 0 instructions: 600000001 cycles: 284076648 cumulative IPC: 2.112 (Simulation time: 03 hr 41 min 27 sec)
Simulation complete CPU 0 instructions: 600000001 cycles: 284076648 cumulative IPC: 2.112 (Simulation time: 03 hr 41 min 27 sec)

ChampSim completed all CPUs

=== Simulation ===
CPU 0 runs traces/400.perlbench-41B.champsimtrace.xz
Region of Interest Statistics

CPU 0 cumulative IPC: 2.112 instructions: 600000001 cycles: 284076648
CPU 0 Branch Prediction Accuracy: 96.56% MPKI: 7.112 Average ROB Occupancy at Mispredict: 47.08
Branch type MPKI
BRANCH_DIRECT_JUMP: 0.0123
BRANCH_INDIRECT: 0.323
BRANCH_CONDITIONAL: 6.56
BRANCH_DIRECT_CALL: 0.0043
BRANCH_INDIRECT_CALL: 0.2
BRANCH_RETURN: 0.00828

LLC TOTAL        ACCESS:     464362 HIT:     231842 MISS:     232520
LLC LOAD         ACCESS:     309489 HIT:     114624 MISS:     194865
LLC RFO          ACCESS:      25165 HIT:      18584 MISS:       6581
LLC PREFETCH     ACCESS:      49453 HIT:      39089 MISS:      10364
LLC WRITE        ACCESS:      64521 HIT:      55853 MISS:       8668
LLC TRANSLATION  ACCESS:      15734 HIT:       3692 MISS:      12042
LLC PREFETCH REQUESTED:      49453 ISSUED:      49453 USEFUL:       3641 USELESS:       5776
LLC AVERAGE MISS LATENCY: 498.7 cycles
cpu0_DTLB TOTAL        ACCESS:  141913214 HIT:  141227438 MISS:     685776
cpu0_DTLB LOAD         ACCESS:  141913214 HIT:  141227438 MISS:     685776
cpu0_DTLB RFO          ACCESS:          0 HIT:          0 MISS:          0
cpu0_DTLB PREFETCH     ACCESS:          0 HIT:          0 MISS:          0
cpu0_DTLB WRITE        ACCESS:          0 HIT:          0 MISS:          0
cpu0_DTLB TRANSLATION  ACCESS:          0 HIT:          0 MISS:          0
cpu0_DTLB PREFETCH REQUESTED:          0 ISSUED:          0 USEFUL:          0 USELESS:          0
cpu0_DTLB AVERAGE MISS LATENCY: 15.63 cycles
cpu0_ITLB TOTAL        ACCESS:    4863784 HIT:    4810482 MISS:      53302
cpu0_ITLB LOAD         ACCESS:    4863784 HIT:    4810482 MISS:      53302
cpu0_ITLB RFO          ACCESS:          0 HIT:          0 MISS:          0
cpu0_ITLB PREFETCH     ACCESS:          0 HIT:          0 MISS:          0
cpu0_ITLB WRITE        ACCESS:          0 HIT:          0 MISS:          0
cpu0_ITLB TRANSLATION  ACCESS:          0 HIT:          0 MISS:          0
cpu0_ITLB PREFETCH REQUESTED:          0 ISSUED:          0 USEFUL:          0 USELESS:          0
cpu0_ITLB AVERAGE MISS LATENCY: 8.084 cycles
cpu0_L1D TOTAL        ACCESS:  188586707 HIT:  187276645 MISS:    1310062
cpu0_L1D LOAD         ACCESS:  105218697 HIT:  104202884 MISS:    1015813
cpu0_L1D RFO          ACCESS:          0 HIT:          0 MISS:          0
cpu0_L1D PREFETCH     ACCESS:          0 HIT:          0 MISS:          0
cpu0_L1D WRITE        ACCESS:   83343544 HIT:   83072156 MISS:     271388
cpu0_L1D TRANSLATION  ACCESS:      24466 HIT:       1605 MISS:      22861
cpu0_L1D PREFETCH REQUESTED:          0 ISSUED:          0 USEFUL:          0 USELESS:          0
cpu0_L1D AVERAGE MISS LATENCY: 88.94 cycles
cpu0_L1I TOTAL        ACCESS:    5601232 HIT:    4857122 MISS:     744110
cpu0_L1I LOAD         ACCESS:    5601232 HIT:    4857122 MISS:     744110
cpu0_L1I RFO          ACCESS:          0 HIT:          0 MISS:          0
cpu0_L1I PREFETCH     ACCESS:          0 HIT:          0 MISS:          0
cpu0_L1I WRITE        ACCESS:          0 HIT:          0 MISS:          0
cpu0_L1I TRANSLATION  ACCESS:          0 HIT:          0 MISS:          0
cpu0_L1I PREFETCH REQUESTED:          0 ISSUED:          0 USEFUL:          0 USELESS:          0
cpu0_L1I AVERAGE MISS LATENCY: 11.47 cycles
cpu0_L2C TOTAL        ACCESS:    1381250 HIT:    1029992 MISS:     351258
cpu0_L2C LOAD         ACCESS:    1124790 HIT:     815301 MISS:     309489
cpu0_L2C RFO          ACCESS:      63780 HIT:      38615 MISS:      25165
cpu0_L2C PREFETCH     ACCESS:          0 HIT:          0 MISS:          0
cpu0_L2C WRITE        ACCESS:     169891 HIT:     169021 MISS:        870
cpu0_L2C TRANSLATION  ACCESS:      22789 HIT:       7055 MISS:      15734
cpu0_L2C PREFETCH REQUESTED:          0 ISSUED:          0 USEFUL:          0 USELESS:          0
cpu0_L2C AVERAGE MISS LATENCY: 332.9 cycles
cpu0_STLB TOTAL        ACCESS:     507289 HIT:     484495 MISS:      22794
cpu0_STLB LOAD         ACCESS:     507289 HIT:     484495 MISS:      22794
cpu0_STLB RFO          ACCESS:          0 HIT:          0 MISS:          0
cpu0_STLB PREFETCH     ACCESS:          0 HIT:          0 MISS:          0
cpu0_STLB WRITE        ACCESS:          0 HIT:          0 MISS:          0
cpu0_STLB TRANSLATION  ACCESS:          0 HIT:          0 MISS:          0
cpu0_STLB PREFETCH REQUESTED:          0 ISSUED:          0 USEFUL:          0 USELESS:          0
cpu0_STLB AVERAGE MISS LATENCY: 350.9 cycles

DRAM Statistics

Channel 0 RQ ROW_BUFFER_HIT:      53216
  ROW_BUFFER_MISS:     169414
 AVG DBUS CONGESTED CYCLE: 3.728
WQ ROW_BUFFER_HIT: Channel 0 
  ROW_BUFFER_MISS:       4231
  FULL:       5819
