WARNING: physical memory size is smaller than virtual memory size.

*** ChampSim Multicore Out-of-Order Simulator ***
Warmup Instructions: 50000000
Simulation Instructions: 600000000
Number of CPUs: 1
Page size: 4096

Initialize SIGNATURE TABLE
ST_SET: 1
ST_WAY: 256
ST_TAG_BIT: 16
ST_TAG_MASK: ffff

Initialize PATTERN TABLE
PT_SET: 512
PT_WAY: 4
SIG_DELTA_BIT: 7
C_SIG_BIT: 4
C_DELTA_BIT: 4

Initialize PREFETCH FILTER
FILTER_SET: 1024
Off-chip DRAM Size: 4 GiB Channels: 1 Width: 64-bit Data Race: 3200 MT/s
Heartbeat CPU 0 instructions: 10000001 cycles: 2500318 heartbeat IPC: 3.999 cumulative IPC: 3.999 (Simulation time: 00 hr 03 min 58 sec)
Heartbeat CPU 0 instructions: 20000002 cycles: 5037080 heartbeat IPC: 3.942 cumulative IPC: 3.971 (Simulation time: 00 hr 07 min 57 sec)
Heartbeat CPU 0 instructions: 30000002 cycles: 7537080 heartbeat IPC: 4 cumulative IPC: 3.98 (Simulation time: 00 hr 11 min 48 sec)
Heartbeat CPU 0 instructions: 40000002 cycles: 10037080 heartbeat IPC: 4 cumulative IPC: 3.985 (Simulation time: 00 hr 15 min 27 sec)
Heartbeat CPU 0 instructions: 50000002 cycles: 12537080 heartbeat IPC: 4 cumulative IPC: 3.988 (Simulation time: 00 hr 19 min 04 sec)
Warmup finished CPU 0 instructions: 50000002 cycles: 12537081 cumulative IPC: 3.988 (Simulation time: 00 hr 19 min 04 sec)
Warmup complete CPU 0 instructions: 50000002 cycles: 12537081 cumulative IPC: 3.988 (Simulation time: 00 hr 19 min 04 sec)
Heartbeat CPU 0 instructions: 60000001 cycles: 15754295 heartbeat IPC: 3.108 cumulative IPC: 3.108 (Simulation time: 00 hr 23 min 37 sec)
Heartbeat CPU 0 instructions: 70000004 cycles: 18979075 heartbeat IPC: 3.101 cumulative IPC: 3.105 (Simulation time: 00 hr 28 min 11 sec)
Heartbeat CPU 0 instructions: 80000001 cycles: 22209201 heartbeat IPC: 3.096 cumulative IPC: 3.102 (Simulation time: 00 hr 32 min 45 sec)
Heartbeat CPU 0 instructions: 90000001 cycles: 25285487 heartbeat IPC: 3.251 cumulative IPC: 3.138 (Simulation time: 00 hr 37 min 11 sec)
Heartbeat CPU 0 instructions: 100000000 cycles: 28357832 heartbeat IPC: 3.255 cumulative IPC: 3.16 (Simulation time: 00 hr 41 min 43 sec)
Heartbeat CPU 0 instructions: 110000000 cycles: 31443388 heartbeat IPC: 3.241 cumulative IPC: 3.174 (Simulation time: 00 hr 46 min 24 sec)
Heartbeat CPU 0 instructions: 120000001 cycles: 34558905 heartbeat IPC: 3.21 cumulative IPC: 3.179 (Simulation time: 00 hr 50 min 53 sec)
Heartbeat CPU 0 instructions: 130000001 cycles: 37528749 heartbeat IPC: 3.367 cumulative IPC: 3.201 (Simulation time: 00 hr 55 min 23 sec)
Heartbeat CPU 0 instructions: 140000001 cycles: 40729255 heartbeat IPC: 3.125 cumulative IPC: 3.192 (Simulation time: 00 hr 59 min 55 sec)
Heartbeat CPU 0 instructions: 150000001 cycles: 43925248 heartbeat IPC: 3.129 cumulative IPC: 3.186 (Simulation time: 01 hr 04 min 29 sec)
Heartbeat CPU 0 instructions: 160000004 cycles: 47143081 heartbeat IPC: 3.108 cumulative IPC: 3.179 (Simulation time: 01 hr 09 min 04 sec)
Heartbeat CPU 0 instructions: 170000000 cycles: 53753470 heartbeat IPC: 1.513 cumulative IPC: 2.911 (Simulation time: 01 hr 16 min 03 sec)
Heartbeat CPU 0 instructions: 180000004 cycles: 60696953 heartbeat IPC: 1.44 cumulative IPC: 2.699 (Simulation time: 01 hr 23 min 22 sec)
Heartbeat CPU 0 instructions: 190000001 cycles: 69808565 heartbeat IPC: 1.098 cumulative IPC: 2.444 (Simulation time: 01 hr 32 min 11 sec)
Heartbeat CPU 0 instructions: 200000004 cycles: 72908128 heartbeat IPC: 3.226 cumulative IPC: 2.485 (Simulation time: 01 hr 36 min 42 sec)
Heartbeat CPU 0 instructions: 210000001 cycles: 76010636 heartbeat IPC: 3.223 cumulative IPC: 2.521 (Simulation time: 01 hr 41 min 14 sec)
Heartbeat CPU 0 instructions: 220000000 cycles: 79020287 heartbeat IPC: 3.323 cumulative IPC: 2.557 (Simulation time: 01 hr 45 min 39 sec)
Heartbeat CPU 0 instructions: 230000004 cycles: 82297661 heartbeat IPC: 3.051 cumulative IPC: 2.58 (Simulation time: 01 hr 50 min 11 sec)
Heartbeat CPU 0 instructions: 240000002 cycles: 85483735 heartbeat IPC: 3.139 cumulative IPC: 2.605 (Simulation time: 01 hr 54 min 55 sec)
Heartbeat CPU 0 instructions: 250000000 cycles: 88674801 heartbeat IPC: 3.134 cumulative IPC: 2.627 (Simulation time: 01 hr 59 min 26 sec)
Heartbeat CPU 0 instructions: 260000002 cycles: 91808329 heartbeat IPC: 3.191 cumulative IPC: 2.649 (Simulation time: 02 hr 03 min 53 sec)
Heartbeat CPU 0 instructions: 270000002 cycles: 94857045 heartbeat IPC: 3.28 cumulative IPC: 2.672 (Simulation time: 02 hr 08 min 25 sec)
Heartbeat CPU 0 instructions: 280000002 cycles: 97897987 heartbeat IPC: 3.288 cumulative IPC: 2.694 (Simulation time: 02 hr 12 min 54 sec)
Heartbeat CPU 0 instructions: 290000002 cycles: 100991976 heartbeat IPC: 3.232 cumulative IPC: 2.713 (Simulation time: 02 hr 17 min 25 sec)
Heartbeat CPU 0 instructions: 300000003 cycles: 104032452 heartbeat IPC: 3.289 cumulative IPC: 2.732 (Simulation time: 02 hr 21 min 57 sec)
Heartbeat CPU 0 instructions: 310000001 cycles: 107228908 heartbeat IPC: 3.128 cumulative IPC: 2.746 (Simulation time: 02 hr 26 min 31 sec)
Heartbeat CPU 0 instructions: 320000003 cycles: 110422797 heartbeat IPC: 3.131 cumulative IPC: 2.758 (Simulation time: 02 hr 31 min 04 sec)
Heartbeat CPU 0 instructions: 330000003 cycles: 113641935 heartbeat IPC: 3.106 cumulative IPC: 2.769 (Simulation time: 02 hr 35 min 37 sec)
Heartbeat CPU 0 instructions: 340000000 cycles: 120387933 heartbeat IPC: 1.482 cumulative IPC: 2.689 (Simulation time: 02 hr 42 min 46 sec)
Heartbeat CPU 0 instructions: 350000000 cycles: 127892378 heartbeat IPC: 1.333 cumulative IPC: 2.601 (Simulation time: 02 hr 50 min 29 sec)
Heartbeat CPU 0 instructions: 360000004 cycles: 137049383 heartbeat IPC: 1.092 cumulative IPC: 2.49 (Simulation time: 02 hr 59 min 17 sec)
Heartbeat CPU 0 instructions: 370000000 cycles: 140084120 heartbeat IPC: 3.295 cumulative IPC: 2.509 (Simulation time: 03 hr 03 min 42 sec)
Heartbeat CPU 0 instructions: 380000001 cycles: 143107127 heartbeat IPC: 3.308 cumulative IPC: 2.527 (Simulation time: 03 hr 08 min 10 sec)
Heartbeat CPU 0 instructions: 390000002 cycles: 146186633 heartbeat IPC: 3.247 cumulative IPC: 2.544 (Simulation time: 03 hr 12 min 51 sec)
Heartbeat CPU 0 instructions: 400000004 cycles: 149164265 heartbeat IPC: 3.358 cumulative IPC: 2.562 (Simulation time: 03 hr 17 min 15 sec)
Heartbeat CPU 0 instructions: 410000001 cycles: 152274512 heartbeat IPC: 3.215 cumulative IPC: 2.576 (Simulation time: 03 hr 21 min 45 sec)
Heartbeat CPU 0 instructions: 420000002 cycles: 155618611 heartbeat IPC: 2.99 cumulative IPC: 2.586 (Simulation time: 03 hr 26 min 24 sec)
Heartbeat CPU 0 instructions: 430000001 cycles: 158723655 heartbeat IPC: 3.221 cumulative IPC: 2.599 (Simulation time: 03 hr 30 min 58 sec)
Heartbeat CPU 0 instructions: 440000004 cycles: 162040109 heartbeat IPC: 3.015 cumulative IPC: 2.609 (Simulation time: 03 hr 35 min 50 sec)
Heartbeat CPU 0 instructions: 450000002 cycles: 165085012 heartbeat IPC: 3.284 cumulative IPC: 2.622 (Simulation time: 03 hr 40 min 18 sec)
Heartbeat CPU 0 instructions: 460000000 cycles: 168163689 heartbeat IPC: 3.248 cumulative IPC: 2.635 (Simulation time: 03 hr 44 min 48 sec)
Heartbeat CPU 0 instructions: 470000001 cycles: 171121862 heartbeat IPC: 3.38 cumulative IPC: 2.648 (Simulation time: 03 hr 49 min 15 sec)
Heartbeat CPU 0 instructions: 480000003 cycles: 174342238 heartbeat IPC: 3.105 cumulative IPC: 2.658 (Simulation time: 03 hr 54 min 04 sec)
Heartbeat CPU 0 instructions: 490000004 cycles: 177272064 heartbeat IPC: 3.413 cumulative IPC: 2.671 (Simulation time: 03 hr 58 min 29 sec)
Heartbeat CPU 0 instructions: 500000004 cycles: 180359867 heartbeat IPC: 3.239 cumulative IPC: 2.681 (Simulation time: 04 hr 02 min 58 sec)
Heartbeat CPU 0 instructions: 510000003 cycles: 183541565 heartbeat IPC: 3.143 cumulative IPC: 2.69 (Simulation time: 04 hr 07 min 37 sec)
Heartbeat CPU 0 instructions: 520000001 cycles: 186571418 heartbeat IPC: 3.3 cumulative IPC: 2.701 (Simulation time: 04 hr 12 min 18 sec)
Heartbeat CPU 0 instructions: 530000001 cycles: 189693534 heartbeat IPC: 3.203 cumulative IPC: 2.709 (Simulation time: 04 hr 16 min 49 sec)
Heartbeat CPU 0 instructions: 540000001 cycles: 192783685 heartbeat IPC: 3.236 cumulative IPC: 2.718 (Simulation time: 04 hr 21 min 20 sec)
Heartbeat CPU 0 instructions: 550000001 cycles: 195917570 heartbeat IPC: 3.191 cumulative IPC: 2.727 (Simulation time: 04 hr 25 min 55 sec)
Heartbeat CPU 0 instructions: 560000004 cycles: 199253408 heartbeat IPC: 2.998 cumulative IPC: 2.731 (Simulation time: 04 hr 30 min 34 sec)
Heartbeat CPU 0 instructions: 570000004 cycles: 204723643 heartbeat IPC: 1.828 cumulative IPC: 2.706 (Simulation time: 04 hr 36 min 44 sec)
Heartbeat CPU 0 instructions: 580000003 cycles: 210727121 heartbeat IPC: 1.666 cumulative IPC: 2.674 (Simulation time: 04 hr 43 min 28 sec)
Heartbeat CPU 0 instructions: 590000002 cycles: 222260852 heartbeat IPC: 0.867 cumulative IPC: 2.575 (Simulation time: 04 hr 53 min 55 sec)
Heartbeat CPU 0 instructions: 600000000 cycles: 225452789 heartbeat IPC: 3.133 cumulative IPC: 2.583 (Simulation time: 04 hr 58 min 26 sec)
Heartbeat CPU 0 instructions: 610000002 cycles: 228513360 heartbeat IPC: 3.267 cumulative IPC: 2.593 (Simulation time: 05 hr 02 min 49 sec)
Heartbeat CPU 0 instructions: 620000001 cycles: 231375012 heartbeat IPC: 3.494 cumulative IPC: 2.605 (Simulation time: 05 hr 07 min 11 sec)
Heartbeat CPU 0 instructions: 630000002 cycles: 234510630 heartbeat IPC: 3.189 cumulative IPC: 2.613 (Simulation time: 05 hr 11 min 38 sec)
Heartbeat CPU 0 instructions: 640000004 cycles: 237529204 heartbeat IPC: 3.313 cumulative IPC: 2.622 (Simulation time: 05 hr 16 min 01 sec)
Heartbeat CPU 0 instructions: 650000000 cycles: 240369606 heartbeat IPC: 3.521 cumulative IPC: 2.634 (Simulation time: 05 hr 20 min 19 sec)
Simulation finished CPU 0 instructions: 600000001 cycles: 227832527 cumulative IPC: 2.634 (Simulation time: 05 hr 20 min 19 sec)
Simulation complete CPU 0 instructions: 600000001 cycles: 227832527 cumulative IPC: 2.634 (Simulation time: 05 hr 20 min 19 sec)

ChampSim completed all CPUs

=== Simulation ===
CPU 0 runs traces/400.perlbench-41B.champsimtrace.xz
Region of Interest Statistics

CPU 0 cumulative IPC: 2.634 instructions: 600000001 cycles: 227832527
CPU 0 Branch Prediction Accuracy: 98.9% MPKI: 2.275 Average ROB Occupancy at Mispredict: 91.2
Branch type MPKI
BRANCH_DIRECT_JUMP: 0.0123
BRANCH_INDIRECT: 0.323
BRANCH_CONDITIONAL: 1.73
BRANCH_DIRECT_CALL: 0.0043
BRANCH_INDIRECT_CALL: 0.2
BRANCH_RETURN: 0.00828

LLC TOTAL        ACCESS:     720213 HIT:     277088 MISS:     443125
LLC LOAD         ACCESS:     309512 HIT:     125946 MISS:     183566
LLC RFO          ACCESS:      25091 HIT:      10157 MISS:      14934
LLC PREFETCH     ACCESS:     305861 HIT:     106176 MISS:     199685
LLC WRITE        ACCESS:      64077 HIT:      32204 MISS:      31873
LLC TRANSLATION  ACCESS:      15672 HIT:       2605 MISS:      13067
LLC PREFETCH REQUESTED:     305861 ISSUED:     305861 USEFUL:       2191 USELESS:        287
LLC AVERAGE MISS LATENCY: 346.7 cycles
cpu0_DTLB TOTAL        ACCESS:  131041534 HIT:  130339902 MISS:     701632
cpu0_DTLB LOAD         ACCESS:  131041534 HIT:  130339902 MISS:     701632
cpu0_DTLB RFO          ACCESS:          0 HIT:          0 MISS:          0
cpu0_DTLB PREFETCH     ACCESS:          0 HIT:          0 MISS:          0
cpu0_DTLB WRITE        ACCESS:          0 HIT:          0 MISS:          0
cpu0_DTLB TRANSLATION  ACCESS:          0 HIT:          0 MISS:          0
cpu0_DTLB PREFETCH REQUESTED:          0 ISSUED:          0 USEFUL:          0 USELESS:          0
cpu0_DTLB AVERAGE MISS LATENCY: 19.23 cycles
cpu0_ITLB TOTAL        ACCESS:    4863697 HIT:    4802401 MISS:      61296
cpu0_ITLB LOAD         ACCESS:    4863697 HIT:    4802401 MISS:      61296
cpu0_ITLB RFO          ACCESS:          0 HIT:          0 MISS:          0
cpu0_ITLB PREFETCH     ACCESS:          0 HIT:          0 MISS:          0
cpu0_ITLB WRITE        ACCESS:          0 HIT:          0 MISS:          0
cpu0_ITLB TRANSLATION  ACCESS:          0 HIT:          0 MISS:          0
cpu0_ITLB PREFETCH REQUESTED:          0 ISSUED:          0 USEFUL:          0 USELESS:          0
cpu0_ITLB AVERAGE MISS LATENCY: 6.592 cycles
cpu0_L1D TOTAL        ACCESS:  176701593 HIT:  175328620 MISS:    1372973
cpu0_L1D LOAD         ACCESS:   93626993 HIT:   92564062 MISS:    1062931
cpu0_L1D RFO          ACCESS:          0 HIT:          0 MISS:          0
cpu0_L1D PREFETCH     ACCESS:          0 HIT:          0 MISS:          0
cpu0_L1D WRITE        ACCESS:   83050134 HIT:   82762967 MISS:     287167
cpu0_L1D TRANSLATION  ACCESS:      24466 HIT:       1591 MISS:      22875
cpu0_L1D PREFETCH REQUESTED:          0 ISSUED:          0 USEFUL:          0 USELESS:          0
cpu0_L1D AVERAGE MISS LATENCY: 109.5 cycles
cpu0_L1I TOTAL        ACCESS:    5640865 HIT:    4839985 MISS:     800880
cpu0_L1I LOAD         ACCESS:    5640865 HIT:    4839985 MISS:     800880
cpu0_L1I RFO          ACCESS:          0 HIT:          0 MISS:          0
cpu0_L1I PREFETCH     ACCESS:          0 HIT:          0 MISS:          0
cpu0_L1I WRITE        ACCESS:          0 HIT:          0 MISS:          0
cpu0_L1I TRANSLATION  ACCESS:          0 HIT:          0 MISS:          0
cpu0_L1I PREFETCH REQUESTED:          0 ISSUED:          0 USEFUL:          0 USELESS:          0
cpu0_L1I AVERAGE MISS LATENCY: 11.73 cycles
cpu0_L2C TOTAL        ACCESS:    1381740 HIT:    1030595 MISS:     351145
cpu0_L2C LOAD         ACCESS:    1124089 HIT:     814577 MISS:     309512
cpu0_L2C RFO          ACCESS:      64524 HIT:      39433 MISS:      25091
cpu0_L2C PREFETCH     ACCESS:          0 HIT:          0 MISS:          0
cpu0_L2C WRITE        ACCESS:     170343 HIT:     169473 MISS:        870
cpu0_L2C TRANSLATION  ACCESS:      22784 HIT:       7112 MISS:      15672
cpu0_L2C PREFETCH REQUESTED:          0 ISSUED:          0 USEFUL:          0 USELESS:          0
cpu0_L2C AVERAGE MISS LATENCY: 453.4 cycles
cpu0_STLB TOTAL        ACCESS:     508552 HIT:     485765 MISS:      22787
cpu0_STLB LOAD         ACCESS:     508552 HIT:     485765 MISS:      22787
cpu0_STLB RFO          ACCESS:          0 HIT:          0 MISS:          0
cpu0_STLB PREFETCH     ACCESS:          0 HIT:          0 MISS:          0
cpu0_STLB WRITE        ACCESS:          0 HIT:          0 MISS:          0
cpu0_STLB TRANSLATION  ACCESS:          0 HIT:          0 MISS:          0
cpu0_STLB PREFETCH REQUESTED:          0 ISSUED:          0 USEFUL:          0 USELESS:          0
cpu0_STLB AVERAGE MISS LATENCY: 495.4 cycles

DRAM Statistics

Channel 0 RQ ROW_BUFFER_HIT:      51759
  ROW_BUFFER_MISS:     253380
 AVG DBUS CONGESTED CYCLE: 3.891
WQ ROW_BUFFER_HIT: Channel 0 
  ROW_BUFFER_MISS:       4962
  FULL:      29417
