WARNING: physical memory size is smaller than virtual memory size.

*** ChampSim Multicore Out-of-Order Simulator ***
Warmup Instructions: 50000000
Simulation Instructions: 600000000
Number of CPUs: 1
Page size: 4096

Off-chip DRAM Size: 4 GiB Channels: 1 Width: 64-bit Data Race: 3200 MT/s
Heartbeat CPU 0 instructions: 10000001 cycles: 2500318 heartbeat IPC: 3.999 cumulative IPC: 3.999 (Simulation time: 00 hr 03 min 50 sec)
Heartbeat CPU 0 instructions: 20000002 cycles: 5037087 heartbeat IPC: 3.942 cumulative IPC: 3.971 (Simulation time: 00 hr 07 min 47 sec)
Heartbeat CPU 0 instructions: 30000002 cycles: 7537087 heartbeat IPC: 4 cumulative IPC: 3.98 (Simulation time: 00 hr 11 min 35 sec)
Heartbeat CPU 0 instructions: 40000002 cycles: 10037087 heartbeat IPC: 4 cumulative IPC: 3.985 (Simulation time: 00 hr 15 min 13 sec)
Heartbeat CPU 0 instructions: 50000002 cycles: 12537087 heartbeat IPC: 4 cumulative IPC: 3.988 (Simulation time: 00 hr 18 min 48 sec)
Warmup finished CPU 0 instructions: 50000002 cycles: 12537088 cumulative IPC: 3.988 (Simulation time: 00 hr 18 min 48 sec)
Warmup complete CPU 0 instructions: 50000002 cycles: 12537088 cumulative IPC: 3.988 (Simulation time: 00 hr 18 min 48 sec)
Heartbeat CPU 0 instructions: 60000000 cycles: 16978236 heartbeat IPC: 2.252 cumulative IPC: 2.252 (Simulation time: 00 hr 23 min 54 sec)
Heartbeat CPU 0 instructions: 70000002 cycles: 21136979 heartbeat IPC: 2.405 cumulative IPC: 2.326 (Simulation time: 00 hr 29 min 06 sec)
Heartbeat CPU 0 instructions: 80000001 cycles: 25655329 heartbeat IPC: 2.213 cumulative IPC: 2.287 (Simulation time: 00 hr 34 min 44 sec)
Heartbeat CPU 0 instructions: 90000003 cycles: 29617224 heartbeat IPC: 2.524 cumulative IPC: 2.342 (Simulation time: 00 hr 40 min 06 sec)
Heartbeat CPU 0 instructions: 100000000 cycles: 33743445 heartbeat IPC: 2.424 cumulative IPC: 2.358 (Simulation time: 00 hr 45 min 14 sec)
Heartbeat CPU 0 instructions: 110000000 cycles: 37874680 heartbeat IPC: 2.421 cumulative IPC: 2.368 (Simulation time: 00 hr 50 min 28 sec)
Heartbeat CPU 0 instructions: 120000001 cycles: 41848865 heartbeat IPC: 2.516 cumulative IPC: 2.388 (Simulation time: 00 hr 55 min 26 sec)
Heartbeat CPU 0 instructions: 130000001 cycles: 45602649 heartbeat IPC: 2.664 cumulative IPC: 2.419 (Simulation time: 01 hr 00 min 20 sec)
Heartbeat CPU 0 instructions: 140000001 cycles: 49786555 heartbeat IPC: 2.39 cumulative IPC: 2.416 (Simulation time: 01 hr 05 min 26 sec)
Heartbeat CPU 0 instructions: 150000001 cycles: 53949571 heartbeat IPC: 2.402 cumulative IPC: 2.415 (Simulation time: 01 hr 10 min 22 sec)
Heartbeat CPU 0 instructions: 160000004 cycles: 58209569 heartbeat IPC: 2.347 cumulative IPC: 2.408 (Simulation time: 01 hr 15 min 48 sec)
Heartbeat CPU 0 instructions: 170000001 cycles: 69251511 heartbeat IPC: 0.9056 cumulative IPC: 2.116 (Simulation time: 01 hr 25 min 10 sec)
Heartbeat CPU 0 instructions: 180000004 cycles: 81145552 heartbeat IPC: 0.8408 cumulative IPC: 1.895 (Simulation time: 01 hr 35 min 20 sec)
Heartbeat CPU 0 instructions: 190000001 cycles: 92438767 heartbeat IPC: 0.8855 cumulative IPC: 1.752 (Simulation time: 01 hr 45 min 04 sec)
Heartbeat CPU 0 instructions: 200000004 cycles: 96371474 heartbeat IPC: 2.543 cumulative IPC: 1.789 (Simulation time: 01 hr 49 min 55 sec)
Heartbeat CPU 0 instructions: 210000001 cycles: 100216823 heartbeat IPC: 2.601 cumulative IPC: 1.825 (Simulation time: 01 hr 54 min 47 sec)
Heartbeat CPU 0 instructions: 220000000 cycles: 104048472 heartbeat IPC: 2.61 cumulative IPC: 1.858 (Simulation time: 01 hr 59 min 35 sec)
Heartbeat CPU 0 instructions: 230000002 cycles: 108604220 heartbeat IPC: 2.195 cumulative IPC: 1.874 (Simulation time: 02 hr 04 min 45 sec)
Heartbeat CPU 0 instructions: 240000002 cycles: 112764361 heartbeat IPC: 2.404 cumulative IPC: 1.896 (Simulation time: 02 hr 09 min 54 sec)
Heartbeat CPU 0 instructions: 250000000 cycles: 117031250 heartbeat IPC: 2.344 cumulative IPC: 1.914 (Simulation time: 02 hr 14 min 58 sec)
Heartbeat CPU 0 instructions: 260000000 cycles: 121126428 heartbeat IPC: 2.442 cumulative IPC: 1.934 (Simulation time: 02 hr 19 min 55 sec)
Heartbeat CPU 0 instructions: 270000002 cycles: 125006099 heartbeat IPC: 2.578 cumulative IPC: 1.956 (Simulation time: 02 hr 24 min 44 sec)
Heartbeat CPU 0 instructions: 280000002 cycles: 129139231 heartbeat IPC: 2.419 cumulative IPC: 1.973 (Simulation time: 02 hr 29 min 38 sec)
Heartbeat CPU 0 instructions: 290000002 cycles: 133027965 heartbeat IPC: 2.572 cumulative IPC: 1.992 (Simulation time: 02 hr 34 min 25 sec)
Heartbeat CPU 0 instructions: 300000003 cycles: 136896547 heartbeat IPC: 2.585 cumulative IPC: 2.01 (Simulation time: 02 hr 39 min 19 sec)
Heartbeat CPU 0 instructions: 310000001 cycles: 141056615 heartbeat IPC: 2.404 cumulative IPC: 2.023 (Simulation time: 02 hr 44 min 17 sec)
Heartbeat CPU 0 instructions: 320000003 cycles: 145132256 heartbeat IPC: 2.454 cumulative IPC: 2.036 (Simulation time: 02 hr 49 min 13 sec)
Heartbeat CPU 0 instructions: 330000003 cycles: 149491647 heartbeat IPC: 2.294 cumulative IPC: 2.044 (Simulation time: 02 hr 54 min 18 sec)
Heartbeat CPU 0 instructions: 340000000 cycles: 160938050 heartbeat IPC: 0.8736 cumulative IPC: 1.954 (Simulation time: 03 hr 03 min 57 sec)
Heartbeat CPU 0 instructions: 350000000 cycles: 173273096 heartbeat IPC: 0.8107 cumulative IPC: 1.866 (Simulation time: 03 hr 14 min 27 sec)
Heartbeat CPU 0 instructions: 360000004 cycles: 184460355 heartbeat IPC: 0.8939 cumulative IPC: 1.803 (Simulation time: 03 hr 24 min 01 sec)
Heartbeat CPU 0 instructions: 370000001 cycles: 187954115 heartbeat IPC: 2.862 cumulative IPC: 1.824 (Simulation time: 03 hr 28 min 38 sec)
Heartbeat CPU 0 instructions: 380000001 cycles: 191388527 heartbeat IPC: 2.912 cumulative IPC: 1.845 (Simulation time: 03 hr 33 min 12 sec)
Heartbeat CPU 0 instructions: 390000004 cycles: 194980247 heartbeat IPC: 2.784 cumulative IPC: 1.864 (Simulation time: 03 hr 37 min 53 sec)
Heartbeat CPU 0 instructions: 400000004 cycles: 198542364 heartbeat IPC: 2.807 cumulative IPC: 1.882 (Simulation time: 03 hr 42 min 33 sec)
Heartbeat CPU 0 instructions: 410000001 cycles: 202309400 heartbeat IPC: 2.655 cumulative IPC: 1.897 (Simulation time: 03 hr 47 min 18 sec)
Heartbeat CPU 0 instructions: 420000002 cycles: 206465660 heartbeat IPC: 2.406 cumulative IPC: 1.908 (Simulation time: 03 hr 52 min 17 sec)
Heartbeat CPU 0 instructions: 430000001 cycles: 210078893 heartbeat IPC: 2.768 cumulative IPC: 1.924 (Simulation time: 03 hr 56 min 56 sec)
Heartbeat CPU 0 instructions: 440000004 cycles: 214035820 heartbeat IPC: 2.527 cumulative IPC: 1.935 (Simulation time: 04 hr 01 min 47 sec)
Heartbeat CPU 0 instructions: 450000002 cycles: 217567244 heartbeat IPC: 2.832 cumulative IPC: 1.951 (Simulation time: 04 hr 06 min 24 sec)
Heartbeat CPU 0 instructions: 460000000 cycles: 221115534 heartbeat IPC: 2.818 cumulative IPC: 1.966 (Simulation time: 04 hr 11 min 00 sec)
Heartbeat CPU 0 instructions: 470000001 cycles: 224608723 heartbeat IPC: 2.863 cumulative IPC: 1.98 (Simulation time: 04 hr 15 min 36 sec)
Heartbeat CPU 0 instructions: 480000003 cycles: 228366382 heartbeat IPC: 2.661 cumulative IPC: 1.992 (Simulation time: 04 hr 20 min 17 sec)
Heartbeat CPU 0 instructions: 490000000 cycles: 231861898 heartbeat IPC: 2.861 cumulative IPC: 2.006 (Simulation time: 04 hr 24 min 53 sec)
Heartbeat CPU 0 instructions: 500000004 cycles: 235498713 heartbeat IPC: 2.75 cumulative IPC: 2.018 (Simulation time: 04 hr 29 min 34 sec)
Heartbeat CPU 0 instructions: 510000003 cycles: 239203860 heartbeat IPC: 2.699 cumulative IPC: 2.029 (Simulation time: 04 hr 34 min 21 sec)
Heartbeat CPU 0 instructions: 520000000 cycles: 242589039 heartbeat IPC: 2.954 cumulative IPC: 2.043 (Simulation time: 04 hr 39 min 00 sec)
Heartbeat CPU 0 instructions: 530000002 cycles: 246312874 heartbeat IPC: 2.685 cumulative IPC: 2.053 (Simulation time: 04 hr 43 min 43 sec)
Heartbeat CPU 0 instructions: 540000000 cycles: 249858629 heartbeat IPC: 2.82 cumulative IPC: 2.065 (Simulation time: 04 hr 48 min 22 sec)
Heartbeat CPU 0 instructions: 550000001 cycles: 253527639 heartbeat IPC: 2.726 cumulative IPC: 2.075 (Simulation time: 04 hr 53 min 03 sec)
Heartbeat CPU 0 instructions: 560000004 cycles: 257438936 heartbeat IPC: 2.557 cumulative IPC: 2.082 (Simulation time: 04 hr 57 min 53 sec)
Heartbeat CPU 0 instructions: 570000004 cycles: 264522908 heartbeat IPC: 1.412 cumulative IPC: 2.064 (Simulation time: 05 hr 04 min 50 sec)
Heartbeat CPU 0 instructions: 580000003 cycles: 277199617 heartbeat IPC: 0.7888 cumulative IPC: 2.003 (Simulation time: 05 hr 15 min 25 sec)
Heartbeat CPU 0 instructions: 590000002 cycles: 291839839 heartbeat IPC: 0.683 cumulative IPC: 1.933 (Simulation time: 05 hr 27 min 13 sec)
Heartbeat CPU 0 instructions: 600000000 cycles: 295616084 heartbeat IPC: 2.648 cumulative IPC: 1.943 (Simulation time: 05 hr 31 min 57 sec)
Heartbeat CPU 0 instructions: 610000002 cycles: 299417401 heartbeat IPC: 2.631 cumulative IPC: 1.952 (Simulation time: 05 hr 36 min 38 sec)
Heartbeat CPU 0 instructions: 620000001 cycles: 302825516 heartbeat IPC: 2.934 cumulative IPC: 1.964 (Simulation time: 05 hr 41 min 13 sec)
Heartbeat CPU 0 instructions: 630000002 cycles: 306976814 heartbeat IPC: 2.409 cumulative IPC: 1.97 (Simulation time: 05 hr 46 min 10 sec)
Heartbeat CPU 0 instructions: 640000001 cycles: 310743470 heartbeat IPC: 2.655 cumulative IPC: 1.978 (Simulation time: 05 hr 50 min 54 sec)
Heartbeat CPU 0 instructions: 650000000 cycles: 314417246 heartbeat IPC: 2.722 cumulative IPC: 1.988 (Simulation time: 05 hr 55 min 33 sec)
Simulation finished CPU 0 instructions: 600000001 cycles: 301880160 cumulative IPC: 1.988 (Simulation time: 05 hr 55 min 33 sec)
Simulation complete CPU 0 instructions: 600000001 cycles: 301880160 cumulative IPC: 1.988 (Simulation time: 05 hr 55 min 33 sec)

ChampSim completed all CPUs

=== Simulation ===
CPU 0 runs traces/400.perlbench-41B.champsimtrace.xz
Region of Interest Statistics

CPU 0 cumulative IPC: 1.988 instructions: 600000001 cycles: 301880160
CPU 0 Branch Prediction Accuracy: 96.64% MPKI: 6.948 Average ROB Occupancy at Mispredict: 46.01
Branch type MPKI
BRANCH_DIRECT_JUMP: 0.0123
BRANCH_INDIRECT: 0.323
BRANCH_CONDITIONAL: 6.4
BRANCH_DIRECT_CALL: 0.0043
BRANCH_INDIRECT_CALL: 0.2
BRANCH_RETURN: 0.00828

LLC TOTAL        ACCESS:     415182 HIT:     136984 MISS:     278198
LLC LOAD         ACCESS:     309781 HIT:      59860 MISS:     249921
LLC RFO          ACCESS:      25086 HIT:       8376 MISS:      16710
LLC PREFETCH     ACCESS:          0 HIT:          0 MISS:          0
LLC WRITE        ACCESS:      64461 HIT:      63277 MISS:       1184
LLC TRANSLATION  ACCESS:      15854 HIT:       5471 MISS:      10383
LLC PREFETCH REQUESTED:          0 ISSUED:          0 USEFUL:          0 USELESS:          0
LLC AVERAGE MISS LATENCY: 551.8 cycles
cpu0_DTLB TOTAL        ACCESS:  141355267 HIT:  140680232 MISS:     675035
cpu0_DTLB LOAD         ACCESS:  141355267 HIT:  140680232 MISS:     675035
cpu0_DTLB RFO          ACCESS:          0 HIT:          0 MISS:          0
cpu0_DTLB PREFETCH     ACCESS:          0 HIT:          0 MISS:          0
cpu0_DTLB WRITE        ACCESS:          0 HIT:          0 MISS:          0
cpu0_DTLB TRANSLATION  ACCESS:          0 HIT:          0 MISS:          0
cpu0_DTLB PREFETCH REQUESTED:          0 ISSUED:          0 USEFUL:          0 USELESS:          0
cpu0_DTLB AVERAGE MISS LATENCY: 15.07 cycles
cpu0_ITLB TOTAL        ACCESS:    4857060 HIT:    4810348 MISS:      46712
cpu0_ITLB LOAD         ACCESS:    4857060 HIT:    4810348 MISS:      46712
cpu0_ITLB RFO          ACCESS:          0 HIT:          0 MISS:          0
cpu0_ITLB PREFETCH     ACCESS:          0 HIT:          0 MISS:          0
cpu0_ITLB WRITE        ACCESS:          0 HIT:          0 MISS:          0
cpu0_ITLB TRANSLATION  ACCESS:          0 HIT:          0 MISS:          0
cpu0_ITLB PREFETCH REQUESTED:          0 ISSUED:          0 USEFUL:          0 USELESS:          0
cpu0_ITLB AVERAGE MISS LATENCY: 9.695 cycles
cpu0_L1D TOTAL        ACCESS:  187997858 HIT:  186669304 MISS:    1328554
cpu0_L1D LOAD         ACCESS:  104671841 HIT:  103651100 MISS:    1020741
cpu0_L1D RFO          ACCESS:          0 HIT:          0 MISS:          0
cpu0_L1D PREFETCH     ACCESS:          0 HIT:          0 MISS:          0
cpu0_L1D WRITE        ACCESS:   83301549 HIT:   83016600 MISS:     284949
cpu0_L1D TRANSLATION  ACCESS:      24468 HIT:       1604 MISS:      22864
cpu0_L1D PREFETCH REQUESTED:          0 ISSUED:          0 USEFUL:          0 USELESS:          0
cpu0_L1D AVERAGE MISS LATENCY: 117.3 cycles
cpu0_L1I TOTAL        ACCESS:    5594575 HIT:    4874297 MISS:     720278
cpu0_L1I LOAD         ACCESS:    5594575 HIT:    4874297 MISS:     720278
cpu0_L1I RFO          ACCESS:          0 HIT:          0 MISS:          0
cpu0_L1I PREFETCH     ACCESS:          0 HIT:          0 MISS:          0
cpu0_L1I WRITE        ACCESS:          0 HIT:          0 MISS:          0
cpu0_L1I TRANSLATION  ACCESS:          0 HIT:          0 MISS:          0
cpu0_L1I PREFETCH REQUESTED:          0 ISSUED:          0 USEFUL:          0 USELESS:          0
cpu0_L1I AVERAGE MISS LATENCY: 15.51 cycles
cpu0_L2C TOTAL        ACCESS:    1381196 HIT:    1029607 MISS:     351589
cpu0_L2C LOAD         ACCESS:    1124994 HIT:     815213 MISS:     309781
cpu0_L2C RFO          ACCESS:      63677 HIT:      38591 MISS:      25086
cpu0_L2C PREFETCH     ACCESS:          0 HIT:          0 MISS:          0
cpu0_L2C WRITE        ACCESS:     169719 HIT:     168851 MISS:        868
cpu0_L2C TRANSLATION  ACCESS:      22806 HIT:       6952 MISS:      15854
cpu0_L2C PREFETCH REQUESTED:          0 ISSUED:          0 USEFUL:          0 USELESS:          0
cpu0_L2C AVERAGE MISS LATENCY: 457.3 cycles
cpu0_STLB TOTAL        ACCESS:     505988 HIT:     483197 MISS:      22791
cpu0_STLB LOAD         ACCESS:     505988 HIT:     483197 MISS:      22791
cpu0_STLB RFO          ACCESS:          0 HIT:          0 MISS:          0
cpu0_STLB PREFETCH     ACCESS:          0 HIT:          0 MISS:          0
cpu0_STLB WRITE        ACCESS:          0 HIT:          0 MISS:          0
cpu0_STLB TRANSLATION  ACCESS:          0 HIT:          0 MISS:          0
cpu0_STLB PREFETCH REQUESTED:          0 ISSUED:          0 USEFUL:          0 USELESS:          0
cpu0_STLB AVERAGE MISS LATENCY: 321.6 cycles

DRAM Statistics

Channel 0 RQ ROW_BUFFER_HIT:      43407
  ROW_BUFFER_MISS:     233588
 AVG DBUS CONGESTED CYCLE: 3.8
WQ ROW_BUFFER_HIT: Channel 0 
  ROW_BUFFER_MISS:       8194
  FULL:      37388
