WARNING: physical memory size is smaller than virtual memory size.

*** ChampSim Multicore Out-of-Order Simulator ***
Warmup Instructions: 50000000
Simulation Instructions: 600000000
Number of CPUs: 1
Page size: 4096

CPU 0 Tage branch predictor
Off-chip DRAM Size: 4 GiB Channels: 1 Width: 64-bit Data Race: 3200 MT/s
Heartbeat CPU 0 instructions: 10000001 cycles: 2500319 heartbeat IPC: 3.999 cumulative IPC: 3.999 (Simulation time: 00 hr 04 min 34 sec)
Heartbeat CPU 0 instructions: 20000002 cycles: 5037102 heartbeat IPC: 3.942 cumulative IPC: 3.971 (Simulation time: 00 hr 09 min 06 sec)
Heartbeat CPU 0 instructions: 30000002 cycles: 7537102 heartbeat IPC: 4 cumulative IPC: 3.98 (Simulation time: 00 hr 13 min 29 sec)
Heartbeat CPU 0 instructions: 40000002 cycles: 10037102 heartbeat IPC: 4 cumulative IPC: 3.985 (Simulation time: 00 hr 17 min 51 sec)
Heartbeat CPU 0 instructions: 50000002 cycles: 12537102 heartbeat IPC: 4 cumulative IPC: 3.988 (Simulation time: 00 hr 21 min 59 sec)
Warmup finished CPU 0 instructions: 50000002 cycles: 12537103 cumulative IPC: 3.988 (Simulation time: 00 hr 21 min 59 sec)
Warmup complete CPU 0 instructions: 50000002 cycles: 12537103 cumulative IPC: 3.988 (Simulation time: 00 hr 21 min 59 sec)
Heartbeat CPU 0 instructions: 60000001 cycles: 15553109 heartbeat IPC: 3.316 cumulative IPC: 3.316 (Simulation time: 00 hr 27 min 02 sec)
Heartbeat CPU 0 instructions: 70000004 cycles: 18650676 heartbeat IPC: 3.228 cumulative IPC: 3.271 (Simulation time: 00 hr 32 min 17 sec)
Heartbeat CPU 0 instructions: 80000001 cycles: 21715920 heartbeat IPC: 3.262 cumulative IPC: 3.268 (Simulation time: 00 hr 37 min 20 sec)
Heartbeat CPU 0 instructions: 90000001 cycles: 24677483 heartbeat IPC: 3.377 cumulative IPC: 3.295 (Simulation time: 00 hr 42 min 19 sec)
Heartbeat CPU 0 instructions: 100000000 cycles: 27612752 heartbeat IPC: 3.407 cumulative IPC: 3.317 (Simulation time: 00 hr 47 min 16 sec)
Heartbeat CPU 0 instructions: 110000000 cycles: 30569198 heartbeat IPC: 3.382 cumulative IPC: 3.327 (Simulation time: 00 hr 52 min 12 sec)
Heartbeat CPU 0 instructions: 120000001 cycles: 33562328 heartbeat IPC: 3.341 cumulative IPC: 3.329 (Simulation time: 00 hr 57 min 11 sec)
Heartbeat CPU 0 instructions: 130000001 cycles: 36443658 heartbeat IPC: 3.471 cumulative IPC: 3.346 (Simulation time: 01 hr 02 min 10 sec)
Heartbeat CPU 0 instructions: 140000001 cycles: 39526907 heartbeat IPC: 3.243 cumulative IPC: 3.335 (Simulation time: 01 hr 07 min 14 sec)
Heartbeat CPU 0 instructions: 150000001 cycles: 42567930 heartbeat IPC: 3.288 cumulative IPC: 3.33 (Simulation time: 01 hr 12 min 17 sec)
Heartbeat CPU 0 instructions: 160000004 cycles: 45625352 heartbeat IPC: 3.271 cumulative IPC: 3.324 (Simulation time: 01 hr 17 min 19 sec)
Heartbeat CPU 0 instructions: 170000000 cycles: 53352824 heartbeat IPC: 1.294 cumulative IPC: 2.94 (Simulation time: 01 hr 25 min 40 sec)
Heartbeat CPU 0 instructions: 180000004 cycles: 61793977 heartbeat IPC: 1.185 cumulative IPC: 2.639 (Simulation time: 01 hr 34 min 35 sec)
Heartbeat CPU 0 instructions: 190000001 cycles: 70395328 heartbeat IPC: 1.163 cumulative IPC: 2.42 (Simulation time: 01 hr 43 min 36 sec)
Heartbeat CPU 0 instructions: 200000004 cycles: 73395193 heartbeat IPC: 3.333 cumulative IPC: 2.465 (Simulation time: 01 hr 48 min 38 sec)
Heartbeat CPU 0 instructions: 210000001 cycles: 76382433 heartbeat IPC: 3.348 cumulative IPC: 2.506 (Simulation time: 01 hr 53 min 38 sec)
Heartbeat CPU 0 instructions: 220000000 cycles: 79289195 heartbeat IPC: 3.44 cumulative IPC: 2.547 (Simulation time: 01 hr 58 min 34 sec)
Heartbeat CPU 0 instructions: 230000002 cycles: 82356742 heartbeat IPC: 3.26 cumulative IPC: 2.578 (Simulation time: 02 hr 03 min 42 sec)
Heartbeat CPU 0 instructions: 240000003 cycles: 85419737 heartbeat IPC: 3.265 cumulative IPC: 2.607 (Simulation time: 02 hr 08 min 45 sec)
Heartbeat CPU 0 instructions: 250000000 cycles: 88468810 heartbeat IPC: 3.28 cumulative IPC: 2.634 (Simulation time: 02 hr 13 min 53 sec)
Heartbeat CPU 0 instructions: 260000002 cycles: 91454978 heartbeat IPC: 3.349 cumulative IPC: 2.661 (Simulation time: 02 hr 18 min 53 sec)
Heartbeat CPU 0 instructions: 270000002 cycles: 94386265 heartbeat IPC: 3.411 cumulative IPC: 2.688 (Simulation time: 02 hr 23 min 51 sec)
Heartbeat CPU 0 instructions: 280000002 cycles: 97286866 heartbeat IPC: 3.448 cumulative IPC: 2.714 (Simulation time: 02 hr 28 min 52 sec)
Heartbeat CPU 0 instructions: 290000002 cycles: 100263564 heartbeat IPC: 3.359 cumulative IPC: 2.736 (Simulation time: 02 hr 33 min 54 sec)
Heartbeat CPU 0 instructions: 300000003 cycles: 103187447 heartbeat IPC: 3.42 cumulative IPC: 2.758 (Simulation time: 02 hr 38 min 59 sec)
Heartbeat CPU 0 instructions: 310000001 cycles: 106270897 heartbeat IPC: 3.243 cumulative IPC: 2.774 (Simulation time: 02 hr 44 min 04 sec)
Heartbeat CPU 0 instructions: 320000003 cycles: 109304824 heartbeat IPC: 3.296 cumulative IPC: 2.79 (Simulation time: 02 hr 49 min 06 sec)
Heartbeat CPU 0 instructions: 330000003 cycles: 112338056 heartbeat IPC: 3.297 cumulative IPC: 2.806 (Simulation time: 02 hr 54 min 11 sec)
Heartbeat CPU 0 instructions: 340000000 cycles: 120328487 heartbeat IPC: 1.251 cumulative IPC: 2.69 (Simulation time: 03 hr 02 min 43 sec)
Heartbeat CPU 0 instructions: 350000000 cycles: 129078137 heartbeat IPC: 1.143 cumulative IPC: 2.574 (Simulation time: 03 hr 11 min 57 sec)
Heartbeat CPU 0 instructions: 360000004 cycles: 137737047 heartbeat IPC: 1.155 cumulative IPC: 2.476 (Simulation time: 03 hr 21 min 00 sec)
Heartbeat CPU 0 instructions: 370000000 cycles: 140721870 heartbeat IPC: 3.35 cumulative IPC: 2.496 (Simulation time: 03 hr 25 min 56 sec)
Heartbeat CPU 0 instructions: 380000003 cycles: 143673943 heartbeat IPC: 3.387 cumulative IPC: 2.516 (Simulation time: 03 hr 30 min 56 sec)
Heartbeat CPU 0 instructions: 390000002 cycles: 146667480 heartbeat IPC: 3.341 cumulative IPC: 2.535 (Simulation time: 03 hr 35 min 52 sec)
Heartbeat CPU 0 instructions: 400000004 cycles: 149575822 heartbeat IPC: 3.438 cumulative IPC: 2.554 (Simulation time: 03 hr 40 min 48 sec)
Heartbeat CPU 0 instructions: 410000002 cycles: 152543663 heartbeat IPC: 3.369 cumulative IPC: 2.571 (Simulation time: 03 hr 45 min 49 sec)
Heartbeat CPU 0 instructions: 420000003 cycles: 155752501 heartbeat IPC: 3.116 cumulative IPC: 2.584 (Simulation time: 03 hr 50 min 56 sec)
Heartbeat CPU 0 instructions: 430000001 cycles: 158783374 heartbeat IPC: 3.299 cumulative IPC: 2.598 (Simulation time: 03 hr 55 min 59 sec)
Heartbeat CPU 0 instructions: 440000004 cycles: 161935332 heartbeat IPC: 3.173 cumulative IPC: 2.61 (Simulation time: 04 hr 01 min 04 sec)
Heartbeat CPU 0 instructions: 450000002 cycles: 164872535 heartbeat IPC: 3.405 cumulative IPC: 2.626 (Simulation time: 04 hr 06 min 04 sec)
Heartbeat CPU 0 instructions: 460000000 cycles: 167813907 heartbeat IPC: 3.4 cumulative IPC: 2.64 (Simulation time: 04 hr 11 min 03 sec)
Heartbeat CPU 0 instructions: 470000001 cycles: 170687205 heartbeat IPC: 3.48 cumulative IPC: 2.656 (Simulation time: 04 hr 15 min 59 sec)
Heartbeat CPU 0 instructions: 480000003 cycles: 173757933 heartbeat IPC: 3.257 cumulative IPC: 2.667 (Simulation time: 04 hr 21 min 00 sec)
Heartbeat CPU 0 instructions: 490000004 cycles: 176592360 heartbeat IPC: 3.528 cumulative IPC: 2.682 (Simulation time: 04 hr 25 min 51 sec)
Heartbeat CPU 0 instructions: 500000004 cycles: 179582114 heartbeat IPC: 3.345 cumulative IPC: 2.694 (Simulation time: 04 hr 30 min 47 sec)
Heartbeat CPU 0 instructions: 510000003 cycles: 182628205 heartbeat IPC: 3.283 cumulative IPC: 2.704 (Simulation time: 04 hr 35 min 49 sec)
Heartbeat CPU 0 instructions: 520000001 cycles: 185528899 heartbeat IPC: 3.447 cumulative IPC: 2.717 (Simulation time: 04 hr 40 min 53 sec)
Heartbeat CPU 0 instructions: 530000001 cycles: 188556013 heartbeat IPC: 3.303 cumulative IPC: 2.727 (Simulation time: 04 hr 45 min 50 sec)
Heartbeat CPU 0 instructions: 540000000 cycles: 191533670 heartbeat IPC: 3.358 cumulative IPC: 2.737 (Simulation time: 04 hr 50 min 48 sec)
Heartbeat CPU 0 instructions: 550000001 cycles: 194533710 heartbeat IPC: 3.333 cumulative IPC: 2.747 (Simulation time: 04 hr 55 min 50 sec)
Heartbeat CPU 0 instructions: 560000000 cycles: 197646507 heartbeat IPC: 3.213 cumulative IPC: 2.755 (Simulation time: 05 hr 00 min 52 sec)
Heartbeat CPU 0 instructions: 570000004 cycles: 203036366 heartbeat IPC: 1.855 cumulative IPC: 2.73 (Simulation time: 05 hr 07 min 34 sec)
Heartbeat CPU 0 instructions: 580000003 cycles: 212185252 heartbeat IPC: 1.093 cumulative IPC: 2.655 (Simulation time: 05 hr 17 min 10 sec)
Heartbeat CPU 0 instructions: 590000002 cycles: 223217072 heartbeat IPC: 0.9065 cumulative IPC: 2.563 (Simulation time: 05 hr 27 min 47 sec)
Heartbeat CPU 0 instructions: 600000004 cycles: 226345852 heartbeat IPC: 3.196 cumulative IPC: 2.572 (Simulation time: 05 hr 32 min 50 sec)
Heartbeat CPU 0 instructions: 610000002 cycles: 229332151 heartbeat IPC: 3.349 cumulative IPC: 2.583 (Simulation time: 05 hr 37 min 47 sec)
Heartbeat CPU 0 instructions: 620000001 cycles: 232119711 heartbeat IPC: 3.587 cumulative IPC: 2.596 (Simulation time: 05 hr 42 min 36 sec)
Heartbeat CPU 0 instructions: 630000002 cycles: 235114406 heartbeat IPC: 3.339 cumulative IPC: 2.606 (Simulation time: 05 hr 47 min 46 sec)
Heartbeat CPU 0 instructions: 640000004 cycles: 238068593 heartbeat IPC: 3.385 cumulative IPC: 2.616 (Simulation time: 05 hr 52 min 40 sec)
Heartbeat CPU 0 instructions: 650000000 cycles: 240826435 heartbeat IPC: 3.626 cumulative IPC: 2.628 (Simulation time: 05 hr 57 min 42 sec)
Simulation finished CPU 0 instructions: 600000001 cycles: 228289334 cumulative IPC: 2.628 (Simulation time: 05 hr 57 min 42 sec)
Simulation complete CPU 0 instructions: 600000001 cycles: 228289334 cumulative IPC: 2.628 (Simulation time: 05 hr 57 min 42 sec)

ChampSim completed all CPUs

=== Simulation ===
CPU 0 runs traces/400.perlbench-41B.champsimtrace.xz
Region of Interest Statistics

CPU 0 cumulative IPC: 2.628 instructions: 600000001 cycles: 228289334
CPU 0 Branch Prediction Accuracy: 99.19% MPKI: 1.684 Average ROB Occupancy at Mispredict: 101.7
Branch type MPKI
BRANCH_DIRECT_JUMP: 0.0123
BRANCH_INDIRECT: 0.323
BRANCH_CONDITIONAL: 1.14
BRANCH_DIRECT_CALL: 0.0043
BRANCH_INDIRECT_CALL: 0.2
BRANCH_RETURN: 0.00828

LLC TOTAL        ACCESS:     721600 HIT:     273077 MISS:     448523
LLC LOAD         ACCESS:     308473 HIT:     104410 MISS:     204063
LLC RFO          ACCESS:      25163 HIT:       8401 MISS:      16762
LLC PREFETCH     ACCESS:     308473 HIT:      93704 MISS:     214769
LLC WRITE        ACCESS:      63785 HIT:      62000 MISS:       1785
LLC TRANSLATION  ACCESS:      15706 HIT:       4562 MISS:      11144
LLC PREFETCH REQUESTED:     308473 ISSUED:     308473 USEFUL:      79548 USELESS:      81174
LLC AVERAGE MISS LATENCY: 673.5 cycles
cpu0_DTLB TOTAL        ACCESS:  129744511 HIT:  129042893 MISS:     701618
cpu0_DTLB LOAD         ACCESS:  129744511 HIT:  129042893 MISS:     701618
cpu0_DTLB RFO          ACCESS:          0 HIT:          0 MISS:          0
cpu0_DTLB PREFETCH     ACCESS:          0 HIT:          0 MISS:          0
cpu0_DTLB WRITE        ACCESS:          0 HIT:          0 MISS:          0
cpu0_DTLB TRANSLATION  ACCESS:          0 HIT:          0 MISS:          0
cpu0_DTLB PREFETCH REQUESTED:          0 ISSUED:          0 USEFUL:          0 USELESS:          0
cpu0_DTLB AVERAGE MISS LATENCY: 18.17 cycles
cpu0_ITLB TOTAL        ACCESS:    4870375 HIT:    4807703 MISS:      62672
cpu0_ITLB LOAD         ACCESS:    4870375 HIT:    4807703 MISS:      62672
cpu0_ITLB RFO          ACCESS:          0 HIT:          0 MISS:          0
cpu0_ITLB PREFETCH     ACCESS:          0 HIT:          0 MISS:          0
cpu0_ITLB WRITE        ACCESS:          0 HIT:          0 MISS:          0
cpu0_ITLB TRANSLATION  ACCESS:          0 HIT:          0 MISS:          0
cpu0_ITLB PREFETCH REQUESTED:          0 ISSUED:          0 USEFUL:          0 USELESS:          0
cpu0_ITLB AVERAGE MISS LATENCY: 7.589 cycles
cpu0_L1D TOTAL        ACCESS:  174352795 HIT:  172956583 MISS:    1396212
cpu0_L1D LOAD         ACCESS:   91331557 HIT:   90256980 MISS:    1074577
cpu0_L1D RFO          ACCESS:          0 HIT:          0 MISS:          0
cpu0_L1D PREFETCH     ACCESS:          0 HIT:          0 MISS:          0
cpu0_L1D WRITE        ACCESS:   82996771 HIT:   82698000 MISS:     298771
cpu0_L1D TRANSLATION  ACCESS:      24467 HIT:       1603 MISS:      22864
cpu0_L1D PREFETCH REQUESTED:          0 ISSUED:          0 USEFUL:          0 USELESS:          0
cpu0_L1D AVERAGE MISS LATENCY: 122.1 cycles
cpu0_L1I TOTAL        ACCESS:    5649727 HIT:    4844571 MISS:     805156
cpu0_L1I LOAD         ACCESS:    5649727 HIT:    4844571 MISS:     805156
cpu0_L1I RFO          ACCESS:          0 HIT:          0 MISS:          0
cpu0_L1I PREFETCH     ACCESS:          0 HIT:          0 MISS:          0
cpu0_L1I WRITE        ACCESS:          0 HIT:          0 MISS:          0
cpu0_L1I TRANSLATION  ACCESS:          0 HIT:          0 MISS:          0
cpu0_L1I PREFETCH REQUESTED:          0 ISSUED:          0 USEFUL:          0 USELESS:          0
cpu0_L1I AVERAGE MISS LATENCY: 13.58 cycles
cpu0_L2C TOTAL        ACCESS:    1381650 HIT:    1031416 MISS:     350234
cpu0_L2C LOAD         ACCESS:    1124014 HIT:     815541 MISS:     308473
cpu0_L2C RFO          ACCESS:      64505 HIT:      39342 MISS:      25163
cpu0_L2C PREFETCH     ACCESS:          0 HIT:          0 MISS:          0
cpu0_L2C WRITE        ACCESS:     170348 HIT:     169456 MISS:        892
cpu0_L2C TRANSLATION  ACCESS:      22783 HIT:       7077 MISS:      15706
cpu0_L2C PREFETCH REQUESTED:          0 ISSUED:          0 USEFUL:          0 USELESS:          0
cpu0_L2C AVERAGE MISS LATENCY: 519.4 cycles
cpu0_STLB TOTAL        ACCESS:     508682 HIT:     485893 MISS:      22789
cpu0_STLB LOAD         ACCESS:     508682 HIT:     485893 MISS:      22789
cpu0_STLB RFO          ACCESS:          0 HIT:          0 MISS:          0
cpu0_STLB PREFETCH     ACCESS:          0 HIT:          0 MISS:          0
cpu0_STLB WRITE        ACCESS:          0 HIT:          0 MISS:          0
cpu0_STLB TRANSLATION  ACCESS:          0 HIT:          0 MISS:          0
cpu0_STLB PREFETCH REQUESTED:          0 ISSUED:          0 USEFUL:          0 USELESS:          0
cpu0_STLB AVERAGE MISS LATENCY: 461.7 cycles

DRAM Statistics

Channel 0 RQ ROW_BUFFER_HIT:      71792
  ROW_BUFFER_MISS:     296247
 AVG DBUS CONGESTED CYCLE: 3.905
WQ ROW_BUFFER_HIT: Channel 0 
  ROW_BUFFER_MISS:       3653
  FULL:      44649
