WARNING: physical memory size is smaller than virtual memory size.

*** ChampSim Multicore Out-of-Order Simulator ***
Warmup Instructions: 50000000
Simulation Instructions: 600000000
Number of CPUs: 1
Page size: 4096

Initialize SIGNATURE TABLE
ST_SET: 1
ST_WAY: 256
ST_TAG_BIT: 16
ST_TAG_MASK: ffff

Initialize PATTERN TABLE
PT_SET: 512
PT_WAY: 4
SIG_DELTA_BIT: 7
C_SIG_BIT: 4
C_DELTA_BIT: 4

Initialize PREFETCH FILTER
FILTER_SET: 1024
Off-chip DRAM Size: 4 GiB Channels: 1 Width: 64-bit Data Race: 3200 MT/s
Heartbeat CPU 0 instructions: 10000001 cycles: 2500318 heartbeat IPC: 3.999 cumulative IPC: 3.999 (Simulation time: 00 hr 03 min 40 sec)
Heartbeat CPU 0 instructions: 20000002 cycles: 5037072 heartbeat IPC: 3.942 cumulative IPC: 3.971 (Simulation time: 00 hr 07 min 27 sec)
Heartbeat CPU 0 instructions: 30000002 cycles: 7537072 heartbeat IPC: 4 cumulative IPC: 3.98 (Simulation time: 00 hr 10 min 55 sec)
Heartbeat CPU 0 instructions: 40000002 cycles: 10037072 heartbeat IPC: 4 cumulative IPC: 3.985 (Simulation time: 00 hr 14 min 22 sec)
Heartbeat CPU 0 instructions: 50000002 cycles: 12537072 heartbeat IPC: 4 cumulative IPC: 3.988 (Simulation time: 00 hr 17 min 48 sec)
Warmup finished CPU 0 instructions: 50000002 cycles: 12537073 cumulative IPC: 3.988 (Simulation time: 00 hr 17 min 48 sec)
Warmup complete CPU 0 instructions: 50000002 cycles: 12537073 cumulative IPC: 3.988 (Simulation time: 00 hr 17 min 48 sec)
Heartbeat CPU 0 instructions: 60000000 cycles: 17747955 heartbeat IPC: 1.919 cumulative IPC: 1.919 (Simulation time: 00 hr 23 min 24 sec)
Heartbeat CPU 0 instructions: 70000002 cycles: 22677162 heartbeat IPC: 2.029 cumulative IPC: 1.972 (Simulation time: 00 hr 28 min 43 sec)
Heartbeat CPU 0 instructions: 80000001 cycles: 28075392 heartbeat IPC: 1.852 cumulative IPC: 1.931 (Simulation time: 00 hr 34 min 19 sec)
Heartbeat CPU 0 instructions: 90000001 cycles: 32968280 heartbeat IPC: 2.044 cumulative IPC: 1.958 (Simulation time: 00 hr 39 min 34 sec)
Heartbeat CPU 0 instructions: 100000000 cycles: 38110755 heartbeat IPC: 1.945 cumulative IPC: 1.955 (Simulation time: 00 hr 44 min 58 sec)
Heartbeat CPU 0 instructions: 110000000 cycles: 43020089 heartbeat IPC: 2.037 cumulative IPC: 1.968 (Simulation time: 00 hr 50 min 18 sec)
Heartbeat CPU 0 instructions: 120000001 cycles: 48241375 heartbeat IPC: 1.915 cumulative IPC: 1.961 (Simulation time: 00 hr 55 min 46 sec)
Heartbeat CPU 0 instructions: 130000001 cycles: 53425241 heartbeat IPC: 1.929 cumulative IPC: 1.957 (Simulation time: 01 hr 01 min 15 sec)
Heartbeat CPU 0 instructions: 140000001 cycles: 58769827 heartbeat IPC: 1.871 cumulative IPC: 1.947 (Simulation time: 01 hr 06 min 47 sec)
Heartbeat CPU 0 instructions: 150000001 cycles: 64115992 heartbeat IPC: 1.87 cumulative IPC: 1.939 (Simulation time: 01 hr 12 min 19 sec)
Heartbeat CPU 0 instructions: 160000004 cycles: 69364671 heartbeat IPC: 1.905 cumulative IPC: 1.936 (Simulation time: 01 hr 17 min 51 sec)
Heartbeat CPU 0 instructions: 170000004 cycles: 78530659 heartbeat IPC: 1.091 cumulative IPC: 1.818 (Simulation time: 01 hr 26 min 02 sec)
Heartbeat CPU 0 instructions: 180000004 cycles: 87651739 heartbeat IPC: 1.096 cumulative IPC: 1.731 (Simulation time: 01 hr 34 min 32 sec)
Heartbeat CPU 0 instructions: 190000001 cycles: 97698507 heartbeat IPC: 0.9953 cumulative IPC: 1.644 (Simulation time: 01 hr 43 min 22 sec)
Heartbeat CPU 0 instructions: 200000003 cycles: 102454460 heartbeat IPC: 2.103 cumulative IPC: 1.668 (Simulation time: 01 hr 48 min 34 sec)
Heartbeat CPU 0 instructions: 210000001 cycles: 107358285 heartbeat IPC: 2.039 cumulative IPC: 1.687 (Simulation time: 01 hr 53 min 49 sec)
Heartbeat CPU 0 instructions: 220000000 cycles: 112188313 heartbeat IPC: 2.07 cumulative IPC: 1.706 (Simulation time: 01 hr 59 min 01 sec)
Heartbeat CPU 0 instructions: 230000002 cycles: 117537315 heartbeat IPC: 1.87 cumulative IPC: 1.714 (Simulation time: 02 hr 04 min 32 sec)
Heartbeat CPU 0 instructions: 240000000 cycles: 122402191 heartbeat IPC: 2.056 cumulative IPC: 1.729 (Simulation time: 02 hr 09 min 49 sec)
Heartbeat CPU 0 instructions: 250000000 cycles: 127570577 heartbeat IPC: 1.935 cumulative IPC: 1.739 (Simulation time: 02 hr 15 min 17 sec)
Heartbeat CPU 0 instructions: 260000000 cycles: 132614543 heartbeat IPC: 1.983 cumulative IPC: 1.749 (Simulation time: 02 hr 20 min 47 sec)
Heartbeat CPU 0 instructions: 270000002 cycles: 137520586 heartbeat IPC: 2.038 cumulative IPC: 1.76 (Simulation time: 02 hr 26 min 04 sec)
Heartbeat CPU 0 instructions: 280000002 cycles: 142442481 heartbeat IPC: 2.032 cumulative IPC: 1.771 (Simulation time: 02 hr 31 min 21 sec)
Heartbeat CPU 0 instructions: 290000001 cycles: 147828352 heartbeat IPC: 1.857 cumulative IPC: 1.774 (Simulation time: 02 hr 36 min 59 sec)
Heartbeat CPU 0 instructions: 300000003 cycles: 152903610 heartbeat IPC: 1.97 cumulative IPC: 1.781 (Simulation time: 02 hr 42 min 26 sec)
Heartbeat CPU 0 instructions: 310000001 cycles: 158221454 heartbeat IPC: 1.88 cumulative IPC: 1.785 (Simulation time: 02 hr 48 min 10 sec)
Heartbeat CPU 0 instructions: 320000003 cycles: 163450806 heartbeat IPC: 1.912 cumulative IPC: 1.789 (Simulation time: 02 hr 53 min 41 sec)
Heartbeat CPU 0 instructions: 330000003 cycles: 168778209 heartbeat IPC: 1.877 cumulative IPC: 1.792 (Simulation time: 02 hr 59 min 09 sec)
Heartbeat CPU 0 instructions: 340000000 cycles: 178016907 heartbeat IPC: 1.082 cumulative IPC: 1.752 (Simulation time: 03 hr 07 min 20 sec)
Heartbeat CPU 0 instructions: 350000000 cycles: 187744911 heartbeat IPC: 1.028 cumulative IPC: 1.712 (Simulation time: 03 hr 16 min 02 sec)
Heartbeat CPU 0 instructions: 360000004 cycles: 197904225 heartbeat IPC: 0.9843 cumulative IPC: 1.672 (Simulation time: 03 hr 24 min 54 sec)
Heartbeat CPU 0 instructions: 370000000 cycles: 202294149 heartbeat IPC: 2.278 cumulative IPC: 1.686 (Simulation time: 03 hr 29 min 54 sec)
Heartbeat CPU 0 instructions: 380000001 cycles: 207197083 heartbeat IPC: 2.04 cumulative IPC: 1.695 (Simulation time: 03 hr 35 min 13 sec)
Heartbeat CPU 0 instructions: 390000002 cycles: 212004836 heartbeat IPC: 2.08 cumulative IPC: 1.705 (Simulation time: 03 hr 40 min 30 sec)
Heartbeat CPU 0 instructions: 400000004 cycles: 216932479 heartbeat IPC: 2.029 cumulative IPC: 1.712 (Simulation time: 03 hr 45 min 59 sec)
Heartbeat CPU 0 instructions: 410000000 cycles: 221676198 heartbeat IPC: 2.108 cumulative IPC: 1.721 (Simulation time: 03 hr 51 min 11 sec)
Heartbeat CPU 0 instructions: 420000000 cycles: 226831329 heartbeat IPC: 1.94 cumulative IPC: 1.727 (Simulation time: 03 hr 56 min 34 sec)
Heartbeat CPU 0 instructions: 430000001 cycles: 231326833 heartbeat IPC: 2.224 cumulative IPC: 1.737 (Simulation time: 04 hr 01 min 40 sec)
Heartbeat CPU 0 instructions: 440000000 cycles: 236697487 heartbeat IPC: 1.862 cumulative IPC: 1.74 (Simulation time: 04 hr 07 min 12 sec)
Heartbeat CPU 0 instructions: 450000002 cycles: 241377224 heartbeat IPC: 2.137 cumulative IPC: 1.748 (Simulation time: 04 hr 12 min 24 sec)
Heartbeat CPU 0 instructions: 460000000 cycles: 246188959 heartbeat IPC: 2.078 cumulative IPC: 1.755 (Simulation time: 04 hr 17 min 39 sec)
Heartbeat CPU 0 instructions: 470000000 cycles: 251183764 heartbeat IPC: 2.002 cumulative IPC: 1.76 (Simulation time: 04 hr 23 min 10 sec)
Heartbeat CPU 0 instructions: 480000003 cycles: 256005197 heartbeat IPC: 2.074 cumulative IPC: 1.766 (Simulation time: 04 hr 28 min 24 sec)
Heartbeat CPU 0 instructions: 490000000 cycles: 260627480 heartbeat IPC: 2.163 cumulative IPC: 1.774 (Simulation time: 04 hr 33 min 30 sec)
Heartbeat CPU 0 instructions: 500000000 cycles: 265660162 heartbeat IPC: 1.987 cumulative IPC: 1.778 (Simulation time: 04 hr 38 min 51 sec)
Heartbeat CPU 0 instructions: 510000003 cycles: 271332851 heartbeat IPC: 1.763 cumulative IPC: 1.777 (Simulation time: 04 hr 44 min 42 sec)
Heartbeat CPU 0 instructions: 520000001 cycles: 276039120 heartbeat IPC: 2.125 cumulative IPC: 1.784 (Simulation time: 04 hr 49 min 56 sec)
Heartbeat CPU 0 instructions: 530000002 cycles: 281204303 heartbeat IPC: 1.936 cumulative IPC: 1.787 (Simulation time: 04 hr 55 min 24 sec)
Heartbeat CPU 0 instructions: 540000000 cycles: 286329766 heartbeat IPC: 1.951 cumulative IPC: 1.79 (Simulation time: 05 hr 00 min 49 sec)
Heartbeat CPU 0 instructions: 550000001 cycles: 291153963 heartbeat IPC: 2.073 cumulative IPC: 1.795 (Simulation time: 05 hr 06 min 08 sec)
Heartbeat CPU 0 instructions: 560000000 cycles: 296433352 heartbeat IPC: 1.894 cumulative IPC: 1.796 (Simulation time: 05 hr 11 min 35 sec)
Heartbeat CPU 0 instructions: 570000004 cycles: 303539730 heartbeat IPC: 1.407 cumulative IPC: 1.787 (Simulation time: 05 hr 18 min 36 sec)
Heartbeat CPU 0 instructions: 580000003 cycles: 313285989 heartbeat IPC: 1.026 cumulative IPC: 1.762 (Simulation time: 05 hr 27 min 14 sec)
Heartbeat CPU 0 instructions: 590000002 cycles: 325378980 heartbeat IPC: 0.8269 cumulative IPC: 1.726 (Simulation time: 05 hr 37 min 27 sec)
Heartbeat CPU 0 instructions: 600000000 cycles: 329940213 heartbeat IPC: 2.192 cumulative IPC: 1.733 (Simulation time: 05 hr 42 min 29 sec)
Heartbeat CPU 0 instructions: 610000002 cycles: 334419428 heartbeat IPC: 2.233 cumulative IPC: 1.74 (Simulation time: 05 hr 47 min 31 sec)
Heartbeat CPU 0 instructions: 620000000 cycles: 339212197 heartbeat IPC: 2.086 cumulative IPC: 1.745 (Simulation time: 05 hr 52 min 44 sec)
Heartbeat CPU 0 instructions: 630000002 cycles: 344283970 heartbeat IPC: 1.972 cumulative IPC: 1.748 (Simulation time: 05 hr 58 min 05 sec)
Heartbeat CPU 0 instructions: 640000001 cycles: 349129656 heartbeat IPC: 2.064 cumulative IPC: 1.753 (Simulation time: 06 hr 03 min 19 sec)
Heartbeat CPU 0 instructions: 650000000 cycles: 353684693 heartbeat IPC: 2.195 cumulative IPC: 1.759 (Simulation time: 06 hr 08 min 22 sec)
Simulation finished CPU 0 instructions: 600000001 cycles: 341147622 cumulative IPC: 1.759 (Simulation time: 06 hr 08 min 22 sec)
Simulation complete CPU 0 instructions: 600000001 cycles: 341147622 cumulative IPC: 1.759 (Simulation time: 06 hr 08 min 22 sec)

ChampSim completed all CPUs

=== Simulation ===
CPU 0 runs traces/400.perlbench-41B.champsimtrace.xz
Region of Interest Statistics

CPU 0 cumulative IPC: 1.759 instructions: 600000001 cycles: 341147622
CPU 0 Branch Prediction Accuracy: 93.95% MPKI: 12.5 Average ROB Occupancy at Mispredict: 29.56
Branch type MPKI
BRANCH_DIRECT_JUMP: 0.0123
BRANCH_INDIRECT: 0.323
BRANCH_CONDITIONAL: 12
BRANCH_DIRECT_CALL: 0.0043
BRANCH_INDIRECT_CALL: 0.2
BRANCH_RETURN: 0.00828

LLC TOTAL        ACCESS:     719612 HIT:     301666 MISS:     417946
LLC LOAD         ACCESS:     309503 HIT:     139165 MISS:     170338
LLC RFO          ACCESS:      25152 HIT:       7944 MISS:      17208
LLC PREFETCH     ACCESS:     304720 HIT:     118425 MISS:     186295
LLC WRITE        ACCESS:      64520 HIT:      34286 MISS:      30234
LLC TRANSLATION  ACCESS:      15717 HIT:       1846 MISS:      13871
LLC PREFETCH REQUESTED:     304720 ISSUED:     304720 USEFUL:       1980 USELESS:        360
LLC AVERAGE MISS LATENCY: 277.7 cycles
cpu0_DTLB TOTAL        ACCESS:  153657041 HIT:  152979612 MISS:     677429
cpu0_DTLB LOAD         ACCESS:  153657041 HIT:  152979612 MISS:     677429
cpu0_DTLB RFO          ACCESS:          0 HIT:          0 MISS:          0
cpu0_DTLB PREFETCH     ACCESS:          0 HIT:          0 MISS:          0
cpu0_DTLB WRITE        ACCESS:          0 HIT:          0 MISS:          0
cpu0_DTLB TRANSLATION  ACCESS:          0 HIT:          0 MISS:          0
cpu0_DTLB PREFETCH REQUESTED:          0 ISSUED:          0 USEFUL:          0 USELESS:          0
cpu0_DTLB AVERAGE MISS LATENCY: 19.54 cycles
cpu0_ITLB TOTAL        ACCESS:    4835788 HIT:    4777732 MISS:      58056
cpu0_ITLB LOAD         ACCESS:    4835788 HIT:    4777732 MISS:      58056
cpu0_ITLB RFO          ACCESS:          0 HIT:          0 MISS:          0
cpu0_ITLB PREFETCH     ACCESS:          0 HIT:          0 MISS:          0
cpu0_ITLB WRITE        ACCESS:          0 HIT:          0 MISS:          0
cpu0_ITLB TRANSLATION  ACCESS:          0 HIT:          0 MISS:          0
cpu0_ITLB PREFETCH REQUESTED:          0 ISSUED:          0 USEFUL:          0 USELESS:          0
cpu0_ITLB AVERAGE MISS LATENCY: 7.674 cycles
cpu0_L1D TOTAL        ACCESS:  200282535 HIT:  198949925 MISS:    1332610
cpu0_L1D LOAD         ACCESS:  117038915 HIT:  116018617 MISS:    1020298
cpu0_L1D RFO          ACCESS:          0 HIT:          0 MISS:          0
cpu0_L1D PREFETCH     ACCESS:          0 HIT:          0 MISS:          0
cpu0_L1D WRITE        ACCESS:   83219157 HIT:   82929733 MISS:     289424
cpu0_L1D TRANSLATION  ACCESS:      24463 HIT:       1575 MISS:      22888
cpu0_L1D PREFETCH REQUESTED:          0 ISSUED:          0 USEFUL:          0 USELESS:          0
cpu0_L1D AVERAGE MISS LATENCY: 92.11 cycles
cpu0_L1I TOTAL        ACCESS:    5578137 HIT:    4816065 MISS:     762072
cpu0_L1I LOAD         ACCESS:    5578137 HIT:    4816065 MISS:     762072
cpu0_L1I RFO          ACCESS:          0 HIT:          0 MISS:          0
cpu0_L1I PREFETCH     ACCESS:          0 HIT:          0 MISS:          0
cpu0_L1I WRITE        ACCESS:          0 HIT:          0 MISS:          0
cpu0_L1I TRANSLATION  ACCESS:          0 HIT:          0 MISS:          0
cpu0_L1I PREFETCH REQUESTED:          0 ISSUED:          0 USEFUL:          0 USELESS:          0
cpu0_L1I AVERAGE MISS LATENCY: 9.32 cycles
cpu0_L2C TOTAL        ACCESS:    1382405 HIT:    1031165 MISS:     351240
cpu0_L2C LOAD         ACCESS:    1125667 HIT:     816164 MISS:     309503
cpu0_L2C RFO          ACCESS:      63898 HIT:      38746 MISS:      25152
cpu0_L2C PREFETCH     ACCESS:          0 HIT:          0 MISS:          0
cpu0_L2C WRITE        ACCESS:     170037 HIT:     169169 MISS:        868
cpu0_L2C TRANSLATION  ACCESS:      22803 HIT:       7086 MISS:      15717
cpu0_L2C PREFETCH REQUESTED:          0 ISSUED:          0 USEFUL:          0 USELESS:          0
cpu0_L2C AVERAGE MISS LATENCY: 346.7 cycles
cpu0_STLB TOTAL        ACCESS:     505145 HIT:     482356 MISS:      22789
cpu0_STLB LOAD         ACCESS:     505145 HIT:     482356 MISS:      22789
cpu0_STLB RFO          ACCESS:          0 HIT:          0 MISS:          0
cpu0_STLB PREFETCH     ACCESS:          0 HIT:          0 MISS:          0
cpu0_STLB WRITE        ACCESS:          0 HIT:          0 MISS:          0
cpu0_STLB TRANSLATION  ACCESS:          0 HIT:          0 MISS:          0
cpu0_STLB PREFETCH REQUESTED:          0 ISSUED:          0 USEFUL:          0 USELESS:          0
cpu0_STLB AVERAGE MISS LATENCY: 463.8 cycles

DRAM Statistics

Channel 0 RQ ROW_BUFFER_HIT:      56482
  ROW_BUFFER_MISS:     244868
 AVG DBUS CONGESTED CYCLE: 3.845
WQ ROW_BUFFER_HIT: Channel 0 
  ROW_BUFFER_MISS:       6849
  FULL:      26627
