WARNING: physical memory size is smaller than virtual memory size.

*** ChampSim Multicore Out-of-Order Simulator ***
Warmup Instructions: 50000000
Simulation Instructions: 600000000
Number of CPUs: 1
Page size: 4096

Off-chip DRAM Size: 4 GiB Channels: 1 Width: 64-bit Data Race: 3200 MT/s
Heartbeat CPU 0 instructions: 10000000 cycles: 2500061 heartbeat IPC: 4 cumulative IPC: 4 (Simulation time: 00 hr 03 min 19 sec)
Heartbeat CPU 0 instructions: 20000000 cycles: 5000061 heartbeat IPC: 4 cumulative IPC: 4 (Simulation time: 00 hr 06 min 54 sec)
Heartbeat CPU 0 instructions: 30000000 cycles: 7500061 heartbeat IPC: 4 cumulative IPC: 4 (Simulation time: 00 hr 10 min 12 sec)
Heartbeat CPU 0 instructions: 40000000 cycles: 10000061 heartbeat IPC: 4 cumulative IPC: 4 (Simulation time: 00 hr 13 min 38 sec)
Heartbeat CPU 0 instructions: 50000000 cycles: 12500061 heartbeat IPC: 4 cumulative IPC: 4 (Simulation time: 00 hr 17 min 00 sec)
Warmup finished CPU 0 instructions: 50000000 cycles: 12500062 cumulative IPC: 4 (Simulation time: 00 hr 17 min 00 sec)
Warmup complete CPU 0 instructions: 50000000 cycles: 12500062 cumulative IPC: 4 (Simulation time: 00 hr 17 min 00 sec)
Heartbeat CPU 0 instructions: 60000002 cycles: 16906761 heartbeat IPC: 2.269 cumulative IPC: 2.269 (Simulation time: 00 hr 22 min 10 sec)
Heartbeat CPU 0 instructions: 70000003 cycles: 21887096 heartbeat IPC: 2.008 cumulative IPC: 2.131 (Simulation time: 00 hr 27 min 19 sec)
Heartbeat CPU 0 instructions: 80000001 cycles: 27228553 heartbeat IPC: 1.872 cumulative IPC: 2.037 (Simulation time: 00 hr 32 min 37 sec)
Heartbeat CPU 0 instructions: 90000000 cycles: 31524776 heartbeat IPC: 2.328 cumulative IPC: 2.103 (Simulation time: 00 hr 37 min 23 sec)
Heartbeat CPU 0 instructions: 100000003 cycles: 36376281 heartbeat IPC: 2.061 cumulative IPC: 2.094 (Simulation time: 00 hr 42 min 28 sec)
Heartbeat CPU 0 instructions: 110000002 cycles: 41243779 heartbeat IPC: 2.054 cumulative IPC: 2.087 (Simulation time: 00 hr 47 min 31 sec)
Heartbeat CPU 0 instructions: 120000001 cycles: 46237023 heartbeat IPC: 2.003 cumulative IPC: 2.075 (Simulation time: 00 hr 52 min 41 sec)
Heartbeat CPU 0 instructions: 130000003 cycles: 50803754 heartbeat IPC: 2.19 cumulative IPC: 2.089 (Simulation time: 00 hr 57 min 37 sec)
Heartbeat CPU 0 instructions: 140000002 cycles: 55691442 heartbeat IPC: 2.046 cumulative IPC: 2.084 (Simulation time: 01 hr 02 min 45 sec)
Heartbeat CPU 0 instructions: 150000001 cycles: 60355909 heartbeat IPC: 2.144 cumulative IPC: 2.09 (Simulation time: 01 hr 07 min 43 sec)
Heartbeat CPU 0 instructions: 160000000 cycles: 64991741 heartbeat IPC: 2.157 cumulative IPC: 2.096 (Simulation time: 01 hr 12 min 43 sec)
Heartbeat CPU 0 instructions: 170000000 cycles: 70320354 heartbeat IPC: 1.877 cumulative IPC: 2.075 (Simulation time: 01 hr 18 min 05 sec)
Heartbeat CPU 0 instructions: 180000001 cycles: 76037682 heartbeat IPC: 1.749 cumulative IPC: 2.046 (Simulation time: 01 hr 23 min 40 sec)
Heartbeat CPU 0 instructions: 190000002 cycles: 80505582 heartbeat IPC: 2.238 cumulative IPC: 2.059 (Simulation time: 01 hr 28 min 44 sec)
Heartbeat CPU 0 instructions: 200000002 cycles: 85404134 heartbeat IPC: 2.041 cumulative IPC: 2.057 (Simulation time: 01 hr 33 min 48 sec)
Heartbeat CPU 0 instructions: 210000000 cycles: 90405324 heartbeat IPC: 2 cumulative IPC: 2.054 (Simulation time: 01 hr 38 min 57 sec)
Heartbeat CPU 0 instructions: 220000001 cycles: 95326497 heartbeat IPC: 2.032 cumulative IPC: 2.052 (Simulation time: 01 hr 44 min 02 sec)
Heartbeat CPU 0 instructions: 230000002 cycles: 100571187 heartbeat IPC: 1.907 cumulative IPC: 2.044 (Simulation time: 01 hr 49 min 21 sec)
Heartbeat CPU 0 instructions: 240000001 cycles: 105532976 heartbeat IPC: 2.015 cumulative IPC: 2.042 (Simulation time: 01 hr 54 min 32 sec)
Heartbeat CPU 0 instructions: 250000003 cycles: 110707090 heartbeat IPC: 1.933 cumulative IPC: 2.037 (Simulation time: 01 hr 59 min 45 sec)
Heartbeat CPU 0 instructions: 260000001 cycles: 115565294 heartbeat IPC: 2.058 cumulative IPC: 2.038 (Simulation time: 02 hr 04 min 55 sec)
Heartbeat CPU 0 instructions: 270000000 cycles: 123294877 heartbeat IPC: 1.294 cumulative IPC: 1.986 (Simulation time: 02 hr 11 min 58 sec)
Heartbeat CPU 0 instructions: 280000000 cycles: 134975525 heartbeat IPC: 0.8561 cumulative IPC: 1.878 (Simulation time: 02 hr 21 min 40 sec)
Heartbeat CPU 0 instructions: 290000001 cycles: 145107142 heartbeat IPC: 0.987 cumulative IPC: 1.81 (Simulation time: 02 hr 30 min 21 sec)
Heartbeat CPU 0 instructions: 300000003 cycles: 152511863 heartbeat IPC: 1.35 cumulative IPC: 1.786 (Simulation time: 02 hr 37 min 34 sec)
Heartbeat CPU 0 instructions: 310000004 cycles: 163532533 heartbeat IPC: 0.9074 cumulative IPC: 1.721 (Simulation time: 02 hr 46 min 58 sec)
Heartbeat CPU 0 instructions: 320000004 cycles: 169164984 heartbeat IPC: 1.775 cumulative IPC: 1.723 (Simulation time: 02 hr 52 min 49 sec)
Heartbeat CPU 0 instructions: 330000000 cycles: 174465356 heartbeat IPC: 1.887 cumulative IPC: 1.729 (Simulation time: 02 hr 58 min 16 sec)
Heartbeat CPU 0 instructions: 340000001 cycles: 179689904 heartbeat IPC: 1.914 cumulative IPC: 1.735 (Simulation time: 03 hr 03 min 43 sec)
Heartbeat CPU 0 instructions: 350000000 cycles: 185112812 heartbeat IPC: 1.844 cumulative IPC: 1.738 (Simulation time: 03 hr 09 min 17 sec)
Heartbeat CPU 0 instructions: 360000003 cycles: 190296108 heartbeat IPC: 1.929 cumulative IPC: 1.744 (Simulation time: 03 hr 14 min 43 sec)
Heartbeat CPU 0 instructions: 370000001 cycles: 195396392 heartbeat IPC: 1.961 cumulative IPC: 1.75 (Simulation time: 03 hr 20 min 05 sec)
Heartbeat CPU 0 instructions: 380000004 cycles: 200768624 heartbeat IPC: 1.861 cumulative IPC: 1.753 (Simulation time: 03 hr 25 min 38 sec)
Heartbeat CPU 0 instructions: 390000002 cycles: 206200281 heartbeat IPC: 1.841 cumulative IPC: 1.755 (Simulation time: 03 hr 31 min 13 sec)
Heartbeat CPU 0 instructions: 400000000 cycles: 211709081 heartbeat IPC: 1.815 cumulative IPC: 1.757 (Simulation time: 03 hr 36 min 49 sec)
Heartbeat CPU 0 instructions: 410000000 cycles: 219735551 heartbeat IPC: 1.246 cumulative IPC: 1.737 (Simulation time: 03 hr 44 min 10 sec)
Heartbeat CPU 0 instructions: 420000001 cycles: 230918111 heartbeat IPC: 0.8942 cumulative IPC: 1.694 (Simulation time: 03 hr 53 min 33 sec)
Heartbeat CPU 0 instructions: 430000000 cycles: 238549278 heartbeat IPC: 1.31 cumulative IPC: 1.681 (Simulation time: 04 hr 00 min 53 sec)
Heartbeat CPU 0 instructions: 440000002 cycles: 245563187 heartbeat IPC: 1.426 cumulative IPC: 1.673 (Simulation time: 04 hr 07 min 44 sec)
Heartbeat CPU 0 instructions: 450000000 cycles: 252278228 heartbeat IPC: 1.489 cumulative IPC: 1.668 (Simulation time: 04 hr 14 min 28 sec)
Heartbeat CPU 0 instructions: 460000002 cycles: 262887565 heartbeat IPC: 0.9426 cumulative IPC: 1.637 (Simulation time: 04 hr 23 min 33 sec)
Heartbeat CPU 0 instructions: 470000000 cycles: 272495324 heartbeat IPC: 1.041 cumulative IPC: 1.615 (Simulation time: 04 hr 32 min 01 sec)
Heartbeat CPU 0 instructions: 480000000 cycles: 277992709 heartbeat IPC: 1.819 cumulative IPC: 1.62 (Simulation time: 04 hr 37 min 38 sec)
Heartbeat CPU 0 instructions: 490000001 cycles: 283765520 heartbeat IPC: 1.732 cumulative IPC: 1.622 (Simulation time: 04 hr 43 min 26 sec)
Heartbeat CPU 0 instructions: 500000002 cycles: 289432848 heartbeat IPC: 1.765 cumulative IPC: 1.625 (Simulation time: 04 hr 49 min 04 sec)
Heartbeat CPU 0 instructions: 510000000 cycles: 295159103 heartbeat IPC: 1.746 cumulative IPC: 1.627 (Simulation time: 04 hr 54 min 50 sec)
Heartbeat CPU 0 instructions: 520000000 cycles: 300947921 heartbeat IPC: 1.727 cumulative IPC: 1.629 (Simulation time: 05 hr 00 min 34 sec)
Heartbeat CPU 0 instructions: 530000001 cycles: 312344414 heartbeat IPC: 0.8775 cumulative IPC: 1.601 (Simulation time: 05 hr 10 min 26 sec)
Heartbeat CPU 0 instructions: 540000000 cycles: 323029139 heartbeat IPC: 0.9359 cumulative IPC: 1.578 (Simulation time: 05 hr 19 min 50 sec)
Heartbeat CPU 0 instructions: 550000002 cycles: 335801421 heartbeat IPC: 0.7829 cumulative IPC: 1.547 (Simulation time: 05 hr 30 min 33 sec)
Heartbeat CPU 0 instructions: 560000004 cycles: 340604642 heartbeat IPC: 2.082 cumulative IPC: 1.554 (Simulation time: 05 hr 35 min 55 sec)
Heartbeat CPU 0 instructions: 570000001 cycles: 345014397 heartbeat IPC: 2.268 cumulative IPC: 1.564 (Simulation time: 05 hr 41 min 08 sec)
Heartbeat CPU 0 instructions: 580000003 cycles: 349256096 heartbeat IPC: 2.358 cumulative IPC: 1.574 (Simulation time: 05 hr 46 min 13 sec)
Heartbeat CPU 0 instructions: 590000001 cycles: 354159416 heartbeat IPC: 2.039 cumulative IPC: 1.581 (Simulation time: 05 hr 51 min 45 sec)
Heartbeat CPU 0 instructions: 600000003 cycles: 358800611 heartbeat IPC: 2.155 cumulative IPC: 1.588 (Simulation time: 05 hr 56 min 58 sec)
Heartbeat CPU 0 instructions: 610000001 cycles: 363660089 heartbeat IPC: 2.058 cumulative IPC: 1.595 (Simulation time: 06 hr 02 min 18 sec)
Heartbeat CPU 0 instructions: 620000000 cycles: 368728186 heartbeat IPC: 1.973 cumulative IPC: 1.6 (Simulation time: 06 hr 07 min 30 sec)
Heartbeat CPU 0 instructions: 630000002 cycles: 372974517 heartbeat IPC: 2.355 cumulative IPC: 1.609 (Simulation time: 06 hr 11 min 53 sec)
Heartbeat CPU 0 instructions: 640000004 cycles: 378295447 heartbeat IPC: 1.879 cumulative IPC: 1.613 (Simulation time: 06 hr 16 min 36 sec)
Heartbeat CPU 0 instructions: 650000001 cycles: 383058906 heartbeat IPC: 2.099 cumulative IPC: 1.619 (Simulation time: 06 hr 20 min 55 sec)
Simulation finished CPU 0 instructions: 600000001 cycles: 370558845 cumulative IPC: 1.619 (Simulation time: 06 hr 20 min 55 sec)
Simulation complete CPU 0 instructions: 600000001 cycles: 370558845 cumulative IPC: 1.619 (Simulation time: 06 hr 20 min 55 sec)

ChampSim completed all CPUs

=== Simulation ===
CPU 0 runs traces/400.perlbench-50B.champsimtrace.xz
Region of Interest Statistics

CPU 0 cumulative IPC: 1.619 instructions: 600000001 cycles: 370558845
CPU 0 Branch Prediction Accuracy: 93.83% MPKI: 12.71 Average ROB Occupancy at Mispredict: 29.31
Branch type MPKI
BRANCH_DIRECT_JUMP: 0.0176
BRANCH_INDIRECT: 0.38
BRANCH_CONDITIONAL: 11.9
BRANCH_DIRECT_CALL: 0.0067
BRANCH_INDIRECT_CALL: 0.431
BRANCH_RETURN: 0.0161

LLC TOTAL        ACCESS:     568852 HIT:     254453 MISS:     314399
LLC LOAD         ACCESS:     377561 HIT:     124836 MISS:     252725
LLC RFO          ACCESS:      32738 HIT:      12736 MISS:      20002
LLC PREFETCH     ACCESS:      55873 HIT:      27228 MISS:      28645
LLC WRITE        ACCESS:      84557 HIT:      83579 MISS:        978
LLC TRANSLATION  ACCESS:      18123 HIT:       6074 MISS:      12049
LLC PREFETCH REQUESTED:      55873 ISSUED:      55873 USEFUL:      17866 USELESS:       6597
LLC AVERAGE MISS LATENCY: 549.2 cycles
cpu0_DTLB TOTAL        ACCESS:  156752060 HIT:  155452087 MISS:    1299973
cpu0_DTLB LOAD         ACCESS:  156752060 HIT:  155452087 MISS:    1299973
cpu0_DTLB RFO          ACCESS:          0 HIT:          0 MISS:          0
cpu0_DTLB PREFETCH     ACCESS:          0 HIT:          0 MISS:          0
cpu0_DTLB WRITE        ACCESS:          0 HIT:          0 MISS:          0
cpu0_DTLB TRANSLATION  ACCESS:          0 HIT:          0 MISS:          0
cpu0_DTLB PREFETCH REQUESTED:          0 ISSUED:          0 USEFUL:          0 USELESS:          0
cpu0_DTLB AVERAGE MISS LATENCY: 12.09 cycles
cpu0_ITLB TOTAL        ACCESS:    8933463 HIT:    8734610 MISS:     198853
cpu0_ITLB LOAD         ACCESS:    8933463 HIT:    8734610 MISS:     198853
cpu0_ITLB RFO          ACCESS:          0 HIT:          0 MISS:          0
cpu0_ITLB PREFETCH     ACCESS:          0 HIT:          0 MISS:          0
cpu0_ITLB WRITE        ACCESS:          0 HIT:          0 MISS:          0
cpu0_ITLB TRANSLATION  ACCESS:          0 HIT:          0 MISS:          0
cpu0_ITLB PREFETCH REQUESTED:          0 ISSUED:          0 USEFUL:          0 USELESS:          0
cpu0_ITLB AVERAGE MISS LATENCY: 3.274 cycles
cpu0_L1D TOTAL        ACCESS:  203627226 HIT:  200783849 MISS:    2843377
cpu0_L1D LOAD         ACCESS:  117951072 HIT:  115616540 MISS:    2334532
cpu0_L1D RFO          ACCESS:          0 HIT:          0 MISS:          0
cpu0_L1D PREFETCH     ACCESS:          0 HIT:          0 MISS:          0
cpu0_L1D WRITE        ACCESS:   85647613 HIT:   85165315 MISS:     482298
cpu0_L1D TRANSLATION  ACCESS:      28541 HIT:       1994 MISS:      26547
cpu0_L1D PREFETCH REQUESTED:          0 ISSUED:          0 USEFUL:          0 USELESS:          0
cpu0_L1D AVERAGE MISS LATENCY: 59.01 cycles
cpu0_L1I TOTAL        ACCESS:   10372166 HIT:    8573072 MISS:    1799094
cpu0_L1I LOAD         ACCESS:   10372166 HIT:    8573072 MISS:    1799094
cpu0_L1I RFO          ACCESS:          0 HIT:          0 MISS:          0
cpu0_L1I PREFETCH     ACCESS:          0 HIT:          0 MISS:          0
cpu0_L1I WRITE        ACCESS:          0 HIT:          0 MISS:          0
cpu0_L1I TRANSLATION  ACCESS:          0 HIT:          0 MISS:          0
cpu0_L1I PREFETCH REQUESTED:          0 ISSUED:          0 USEFUL:          0 USELESS:          0
cpu0_L1I AVERAGE MISS LATENCY: 10.27 cycles
cpu0_L2C TOTAL        ACCESS:    3235481 HIT:    2806089 MISS:     429392
cpu0_L2C LOAD         ACCESS:    2711794 HIT:    2334233 MISS:     377561
cpu0_L2C RFO          ACCESS:     133690 HIT:     100952 MISS:      32738
cpu0_L2C PREFETCH     ACCESS:          0 HIT:          0 MISS:          0
cpu0_L2C WRITE        ACCESS:     363533 HIT:     362563 MISS:        970
cpu0_L2C TRANSLATION  ACCESS:      26464 HIT:       8341 MISS:      18123
cpu0_L2C PREFETCH REQUESTED:          0 ISSUED:          0 USEFUL:          0 USELESS:          0
cpu0_L2C AVERAGE MISS LATENCY: 382.1 cycles
cpu0_STLB TOTAL        ACCESS:    1009161 HIT:     982470 MISS:      26691
cpu0_STLB LOAD         ACCESS:    1009161 HIT:     982470 MISS:      26691
cpu0_STLB RFO          ACCESS:          0 HIT:          0 MISS:          0
cpu0_STLB PREFETCH     ACCESS:          0 HIT:          0 MISS:          0
cpu0_STLB WRITE        ACCESS:          0 HIT:          0 MISS:          0
cpu0_STLB TRANSLATION  ACCESS:          0 HIT:          0 MISS:          0
cpu0_STLB PREFETCH REQUESTED:          0 ISSUED:          0 USEFUL:          0 USELESS:          0
cpu0_STLB AVERAGE MISS LATENCY: 369.7 cycles

DRAM Statistics

Channel 0 RQ ROW_BUFFER_HIT:      59368
  ROW_BUFFER_MISS:     248985
 AVG DBUS CONGESTED CYCLE: 3.814
WQ ROW_BUFFER_HIT: Channel 0 
  ROW_BUFFER_MISS:       8454
  FULL:      36360
