WARNING: physical memory size is smaller than virtual memory size.

*** ChampSim Multicore Out-of-Order Simulator ***
Warmup Instructions: 50000000
Simulation Instructions: 600000000
Number of CPUs: 1
Page size: 4096

Off-chip DRAM Size: 4 GiB Channels: 1 Width: 64-bit Data Race: 3200 MT/s
Heartbeat CPU 0 instructions: 10000000 cycles: 2500061 heartbeat IPC: 4 cumulative IPC: 4 (Simulation time: 00 hr 03 min 33 sec)
Heartbeat CPU 0 instructions: 20000000 cycles: 5000061 heartbeat IPC: 4 cumulative IPC: 4 (Simulation time: 00 hr 07 min 04 sec)
Heartbeat CPU 0 instructions: 30000000 cycles: 7500061 heartbeat IPC: 4 cumulative IPC: 4 (Simulation time: 00 hr 10 min 49 sec)
Heartbeat CPU 0 instructions: 40000000 cycles: 10000061 heartbeat IPC: 4 cumulative IPC: 4 (Simulation time: 00 hr 14 min 15 sec)
Heartbeat CPU 0 instructions: 50000000 cycles: 12500061 heartbeat IPC: 4 cumulative IPC: 4 (Simulation time: 00 hr 17 min 45 sec)
Warmup finished CPU 0 instructions: 50000000 cycles: 12500062 cumulative IPC: 4 (Simulation time: 00 hr 17 min 45 sec)
Warmup complete CPU 0 instructions: 50000000 cycles: 12500062 cumulative IPC: 4 (Simulation time: 00 hr 17 min 45 sec)
Heartbeat CPU 0 instructions: 60000002 cycles: 16253661 heartbeat IPC: 2.664 cumulative IPC: 2.664 (Simulation time: 00 hr 22 min 26 sec)
Heartbeat CPU 0 instructions: 70000003 cycles: 20412963 heartbeat IPC: 2.404 cumulative IPC: 2.528 (Simulation time: 00 hr 27 min 17 sec)
Heartbeat CPU 0 instructions: 80000003 cycles: 24603055 heartbeat IPC: 2.387 cumulative IPC: 2.479 (Simulation time: 00 hr 32 min 08 sec)
Heartbeat CPU 0 instructions: 90000000 cycles: 27835073 heartbeat IPC: 3.094 cumulative IPC: 2.608 (Simulation time: 00 hr 36 min 31 sec)
Heartbeat CPU 0 instructions: 100000003 cycles: 31838545 heartbeat IPC: 2.498 cumulative IPC: 2.586 (Simulation time: 00 hr 41 min 27 sec)
Heartbeat CPU 0 instructions: 110000002 cycles: 35809179 heartbeat IPC: 2.518 cumulative IPC: 2.574 (Simulation time: 00 hr 46 min 08 sec)
Heartbeat CPU 0 instructions: 120000001 cycles: 39363535 heartbeat IPC: 2.813 cumulative IPC: 2.606 (Simulation time: 00 hr 50 min 37 sec)
Heartbeat CPU 0 instructions: 130000003 cycles: 43014731 heartbeat IPC: 2.739 cumulative IPC: 2.622 (Simulation time: 00 hr 55 min 24 sec)
Heartbeat CPU 0 instructions: 140000002 cycles: 46965697 heartbeat IPC: 2.531 cumulative IPC: 2.611 (Simulation time: 01 hr 00 min 08 sec)
Heartbeat CPU 0 instructions: 150000001 cycles: 50859046 heartbeat IPC: 2.568 cumulative IPC: 2.607 (Simulation time: 01 hr 04 min 50 sec)
Heartbeat CPU 0 instructions: 160000000 cycles: 54503010 heartbeat IPC: 2.744 cumulative IPC: 2.619 (Simulation time: 01 hr 09 min 36 sec)
Heartbeat CPU 0 instructions: 170000001 cycles: 58464103 heartbeat IPC: 2.525 cumulative IPC: 2.611 (Simulation time: 01 hr 14 min 21 sec)
Heartbeat CPU 0 instructions: 180000001 cycles: 61887435 heartbeat IPC: 2.921 cumulative IPC: 2.632 (Simulation time: 01 hr 18 min 50 sec)
Heartbeat CPU 0 instructions: 190000002 cycles: 65362781 heartbeat IPC: 2.877 cumulative IPC: 2.648 (Simulation time: 01 hr 23 min 24 sec)
Heartbeat CPU 0 instructions: 200000002 cycles: 69090204 heartbeat IPC: 2.683 cumulative IPC: 2.651 (Simulation time: 01 hr 28 min 02 sec)
Heartbeat CPU 0 instructions: 210000000 cycles: 72632955 heartbeat IPC: 2.823 cumulative IPC: 2.661 (Simulation time: 01 hr 32 min 34 sec)
Heartbeat CPU 0 instructions: 220000001 cycles: 76330404 heartbeat IPC: 2.705 cumulative IPC: 2.663 (Simulation time: 01 hr 37 min 08 sec)
Heartbeat CPU 0 instructions: 230000002 cycles: 80026645 heartbeat IPC: 2.705 cumulative IPC: 2.666 (Simulation time: 01 hr 41 min 46 sec)
Heartbeat CPU 0 instructions: 240000004 cycles: 84017422 heartbeat IPC: 2.506 cumulative IPC: 2.657 (Simulation time: 01 hr 46 min 32 sec)
Heartbeat CPU 0 instructions: 250000003 cycles: 88324053 heartbeat IPC: 2.322 cumulative IPC: 2.638 (Simulation time: 01 hr 51 min 32 sec)
Heartbeat CPU 0 instructions: 260000001 cycles: 91972157 heartbeat IPC: 2.741 cumulative IPC: 2.642 (Simulation time: 01 hr 56 min 09 sec)
Heartbeat CPU 0 instructions: 270000003 cycles: 99449849 heartbeat IPC: 1.337 cumulative IPC: 2.53 (Simulation time: 02 hr 03 min 15 sec)
Heartbeat CPU 0 instructions: 280000000 cycles: 111393496 heartbeat IPC: 0.8373 cumulative IPC: 2.326 (Simulation time: 02 hr 13 min 21 sec)
Heartbeat CPU 0 instructions: 290000000 cycles: 122282692 heartbeat IPC: 0.9183 cumulative IPC: 2.186 (Simulation time: 02 hr 22 min 49 sec)
Heartbeat CPU 0 instructions: 300000000 cycles: 130365460 heartbeat IPC: 1.237 cumulative IPC: 2.121 (Simulation time: 02 hr 30 min 32 sec)
Heartbeat CPU 0 instructions: 310000004 cycles: 142123492 heartbeat IPC: 0.8505 cumulative IPC: 2.006 (Simulation time: 02 hr 40 min 49 sec)
Heartbeat CPU 0 instructions: 320000004 cycles: 147542833 heartbeat IPC: 1.845 cumulative IPC: 1.999 (Simulation time: 02 hr 46 min 54 sec)
Heartbeat CPU 0 instructions: 330000000 cycles: 151598307 heartbeat IPC: 2.466 cumulative IPC: 2.013 (Simulation time: 02 hr 51 min 56 sec)
Heartbeat CPU 0 instructions: 340000001 cycles: 155924246 heartbeat IPC: 2.312 cumulative IPC: 2.022 (Simulation time: 02 hr 57 min 02 sec)
Heartbeat CPU 0 instructions: 350000004 cycles: 160388896 heartbeat IPC: 2.24 cumulative IPC: 2.029 (Simulation time: 03 hr 02 min 13 sec)
Heartbeat CPU 0 instructions: 360000003 cycles: 164557644 heartbeat IPC: 2.399 cumulative IPC: 2.039 (Simulation time: 03 hr 07 min 14 sec)
Heartbeat CPU 0 instructions: 370000001 cycles: 168618833 heartbeat IPC: 2.462 cumulative IPC: 2.05 (Simulation time: 03 hr 12 min 17 sec)
Heartbeat CPU 0 instructions: 380000004 cycles: 172577738 heartbeat IPC: 2.526 cumulative IPC: 2.061 (Simulation time: 03 hr 17 min 38 sec)
Heartbeat CPU 0 instructions: 390000002 cycles: 176728985 heartbeat IPC: 2.409 cumulative IPC: 2.07 (Simulation time: 03 hr 22 min 44 sec)
Heartbeat CPU 0 instructions: 400000000 cycles: 181202617 heartbeat IPC: 2.235 cumulative IPC: 2.075 (Simulation time: 03 hr 27 min 58 sec)
Heartbeat CPU 0 instructions: 410000000 cycles: 189571595 heartbeat IPC: 1.195 cumulative IPC: 2.033 (Simulation time: 03 hr 35 min 46 sec)
Heartbeat CPU 0 instructions: 420000001 cycles: 201657783 heartbeat IPC: 0.8274 cumulative IPC: 1.956 (Simulation time: 03 hr 46 min 16 sec)
Heartbeat CPU 0 instructions: 430000002 cycles: 210249659 heartbeat IPC: 1.164 cumulative IPC: 1.922 (Simulation time: 03 hr 54 min 24 sec)
Heartbeat CPU 0 instructions: 440000002 cycles: 217676804 heartbeat IPC: 1.346 cumulative IPC: 1.901 (Simulation time: 04 hr 01 min 42 sec)
Heartbeat CPU 0 instructions: 450000000 cycles: 225191413 heartbeat IPC: 1.331 cumulative IPC: 1.881 (Simulation time: 04 hr 09 min 28 sec)
Heartbeat CPU 0 instructions: 460000002 cycles: 236799937 heartbeat IPC: 0.8614 cumulative IPC: 1.828 (Simulation time: 04 hr 19 min 30 sec)
Heartbeat CPU 0 instructions: 470000003 cycles: 247074262 heartbeat IPC: 0.9733 cumulative IPC: 1.79 (Simulation time: 04 hr 28 min 42 sec)
Heartbeat CPU 0 instructions: 480000003 cycles: 251470573 heartbeat IPC: 2.275 cumulative IPC: 1.799 (Simulation time: 04 hr 33 min 57 sec)
Heartbeat CPU 0 instructions: 490000001 cycles: 256213729 heartbeat IPC: 2.108 cumulative IPC: 1.805 (Simulation time: 04 hr 39 min 20 sec)
Heartbeat CPU 0 instructions: 500000002 cycles: 260730910 heartbeat IPC: 2.214 cumulative IPC: 1.813 (Simulation time: 04 hr 44 min 36 sec)
Heartbeat CPU 0 instructions: 510000000 cycles: 265221093 heartbeat IPC: 2.227 cumulative IPC: 1.82 (Simulation time: 04 hr 49 min 50 sec)
Heartbeat CPU 0 instructions: 520000000 cycles: 269805715 heartbeat IPC: 2.181 cumulative IPC: 1.827 (Simulation time: 04 hr 55 min 15 sec)
Heartbeat CPU 0 instructions: 530000001 cycles: 282773744 heartbeat IPC: 0.7711 cumulative IPC: 1.776 (Simulation time: 05 hr 06 min 00 sec)
Heartbeat CPU 0 instructions: 540000000 cycles: 295178389 heartbeat IPC: 0.8061 cumulative IPC: 1.733 (Simulation time: 05 hr 16 min 37 sec)
Heartbeat CPU 0 instructions: 550000002 cycles: 308530031 heartbeat IPC: 0.749 cumulative IPC: 1.689 (Simulation time: 05 hr 27 min 44 sec)
Heartbeat CPU 0 instructions: 560000004 cycles: 312941779 heartbeat IPC: 2.267 cumulative IPC: 1.698 (Simulation time: 05 hr 32 min 55 sec)
Heartbeat CPU 0 instructions: 570000001 cycles: 316085707 heartbeat IPC: 3.181 cumulative IPC: 1.713 (Simulation time: 05 hr 37 min 22 sec)
Heartbeat CPU 0 instructions: 580000003 cycles: 319584697 heartbeat IPC: 2.858 cumulative IPC: 1.726 (Simulation time: 05 hr 41 min 57 sec)
Heartbeat CPU 0 instructions: 590000001 cycles: 323174563 heartbeat IPC: 2.786 cumulative IPC: 1.738 (Simulation time: 05 hr 46 min 34 sec)
Heartbeat CPU 0 instructions: 600000003 cycles: 326167384 heartbeat IPC: 3.341 cumulative IPC: 1.753 (Simulation time: 05 hr 50 min 58 sec)
Heartbeat CPU 0 instructions: 610000001 cycles: 329676112 heartbeat IPC: 2.85 cumulative IPC: 1.766 (Simulation time: 05 hr 55 min 38 sec)
Heartbeat CPU 0 instructions: 620000000 cycles: 333222169 heartbeat IPC: 2.82 cumulative IPC: 1.777 (Simulation time: 06 hr 00 min 17 sec)
Heartbeat CPU 0 instructions: 630000002 cycles: 336424884 heartbeat IPC: 3.122 cumulative IPC: 1.791 (Simulation time: 06 hr 04 min 54 sec)
Heartbeat CPU 0 instructions: 640000004 cycles: 340182270 heartbeat IPC: 2.661 cumulative IPC: 1.801 (Simulation time: 06 hr 09 min 43 sec)
Heartbeat CPU 0 instructions: 650000001 cycles: 343589525 heartbeat IPC: 2.935 cumulative IPC: 1.812 (Simulation time: 06 hr 14 min 14 sec)
Simulation finished CPU 0 instructions: 600000001 cycles: 331089464 cumulative IPC: 1.812 (Simulation time: 06 hr 14 min 14 sec)
Simulation complete CPU 0 instructions: 600000001 cycles: 331089464 cumulative IPC: 1.812 (Simulation time: 06 hr 14 min 14 sec)

ChampSim completed all CPUs

=== Simulation ===
CPU 0 runs traces/400.perlbench-50B.champsimtrace.xz
Region of Interest Statistics

CPU 0 cumulative IPC: 1.812 instructions: 600000001 cycles: 331089464
CPU 0 Branch Prediction Accuracy: 96.09% MPKI: 8.064 Average ROB Occupancy at Mispredict: 40.35
Branch type MPKI
BRANCH_DIRECT_JUMP: 0.0176
BRANCH_INDIRECT: 0.38
BRANCH_CONDITIONAL: 7.21
BRANCH_DIRECT_CALL: 0.0067
BRANCH_INDIRECT_CALL: 0.431
BRANCH_RETURN: 0.0161

LLC TOTAL        ACCESS:     568159 HIT:     240584 MISS:     327575
LLC LOAD         ACCESS:     376027 HIT:     112718 MISS:     263309
LLC RFO          ACCESS:      32975 HIT:      12210 MISS:      20765
LLC PREFETCH     ACCESS:      56324 HIT:      26513 MISS:      29811
LLC WRITE        ACCESS:      84566 HIT:      82958 MISS:       1608
LLC TRANSLATION  ACCESS:      18267 HIT:       6185 MISS:      12082
LLC PREFETCH REQUESTED:      56324 ISSUED:      56324 USEFUL:      19229 USELESS:       6750
LLC AVERAGE MISS LATENCY: 532.1 cycles
cpu0_DTLB TOTAL        ACCESS:  146262105 HIT:  144968682 MISS:    1293423
cpu0_DTLB LOAD         ACCESS:  146262105 HIT:  144968682 MISS:    1293423
cpu0_DTLB RFO          ACCESS:          0 HIT:          0 MISS:          0
cpu0_DTLB PREFETCH     ACCESS:          0 HIT:          0 MISS:          0
cpu0_DTLB WRITE        ACCESS:          0 HIT:          0 MISS:          0
cpu0_DTLB TRANSLATION  ACCESS:          0 HIT:          0 MISS:          0
cpu0_DTLB PREFETCH REQUESTED:          0 ISSUED:          0 USEFUL:          0 USELESS:          0
cpu0_DTLB AVERAGE MISS LATENCY: 11.64 cycles
cpu0_ITLB TOTAL        ACCESS:    8992760 HIT:    8820167 MISS:     172593
cpu0_ITLB LOAD         ACCESS:    8992760 HIT:    8820167 MISS:     172593
cpu0_ITLB RFO          ACCESS:          0 HIT:          0 MISS:          0
cpu0_ITLB PREFETCH     ACCESS:          0 HIT:          0 MISS:          0
cpu0_ITLB WRITE        ACCESS:          0 HIT:          0 MISS:          0
cpu0_ITLB TRANSLATION  ACCESS:          0 HIT:          0 MISS:          0
cpu0_ITLB PREFETCH REQUESTED:          0 ISSUED:          0 USEFUL:          0 USELESS:          0
cpu0_ITLB AVERAGE MISS LATENCY: 4.007 cycles
cpu0_L1D TOTAL        ACCESS:  193018143 HIT:  190217210 MISS:    2800933
cpu0_L1D LOAD         ACCESS:  107200648 HIT:  104897419 MISS:    2303229
cpu0_L1D RFO          ACCESS:          0 HIT:          0 MISS:          0
cpu0_L1D PREFETCH     ACCESS:          0 HIT:          0 MISS:          0
cpu0_L1D WRITE        ACCESS:   85788960 HIT:   85317769 MISS:     471191
cpu0_L1D TRANSLATION  ACCESS:      28535 HIT:       2022 MISS:      26513
cpu0_L1D PREFETCH REQUESTED:          0 ISSUED:          0 USEFUL:          0 USELESS:          0
cpu0_L1D AVERAGE MISS LATENCY: 59.82 cycles
cpu0_L1I TOTAL        ACCESS:   10427027 HIT:    8711695 MISS:    1715332
cpu0_L1I LOAD         ACCESS:   10427027 HIT:    8711695 MISS:    1715332
cpu0_L1I RFO          ACCESS:          0 HIT:          0 MISS:          0
cpu0_L1I PREFETCH     ACCESS:          0 HIT:          0 MISS:          0
cpu0_L1I WRITE        ACCESS:          0 HIT:          0 MISS:          0
cpu0_L1I TRANSLATION  ACCESS:          0 HIT:          0 MISS:          0
cpu0_L1I PREFETCH REQUESTED:          0 ISSUED:          0 USEFUL:          0 USELESS:          0
cpu0_L1I AVERAGE MISS LATENCY: 11.96 cycles
cpu0_L2C TOTAL        ACCESS:    3232233 HIT:    2803950 MISS:     428283
cpu0_L2C LOAD         ACCESS:    2710491 HIT:    2334464 MISS:     376027
cpu0_L2C RFO          ACCESS:     132947 HIT:      99972 MISS:      32975
cpu0_L2C PREFETCH     ACCESS:          0 HIT:          0 MISS:          0
cpu0_L2C WRITE        ACCESS:     362334 HIT:     361320 MISS:       1014
cpu0_L2C TRANSLATION  ACCESS:      26461 HIT:       8194 MISS:      18267
cpu0_L2C PREFETCH REQUESTED:          0 ISSUED:          0 USEFUL:          0 USELESS:          0
cpu0_L2C AVERAGE MISS LATENCY: 387.9 cycles
cpu0_STLB TOTAL        ACCESS:    1009308 HIT:     982610 MISS:      26698
cpu0_STLB LOAD         ACCESS:    1009308 HIT:     982610 MISS:      26698
cpu0_STLB RFO          ACCESS:          0 HIT:          0 MISS:          0
cpu0_STLB PREFETCH     ACCESS:          0 HIT:          0 MISS:          0
cpu0_STLB WRITE        ACCESS:          0 HIT:          0 MISS:          0
cpu0_STLB TRANSLATION  ACCESS:          0 HIT:          0 MISS:          0
cpu0_STLB PREFETCH REQUESTED:          0 ISSUED:          0 USEFUL:          0 USELESS:          0
cpu0_STLB AVERAGE MISS LATENCY: 340.6 cycles

DRAM Statistics

Channel 0 RQ ROW_BUFFER_HIT:      61336
  ROW_BUFFER_MISS:     259830
 AVG DBUS CONGESTED CYCLE: 3.81
WQ ROW_BUFFER_HIT: Channel 0 
  ROW_BUFFER_MISS:       9522
  FULL:      40783
