WARNING: physical memory size is smaller than virtual memory size.

*** ChampSim Multicore Out-of-Order Simulator ***
Warmup Instructions: 50000000
Simulation Instructions: 600000000
Number of CPUs: 1
Page size: 4096

Off-chip DRAM Size: 4 GiB Channels: 1 Width: 64-bit Data Race: 3200 MT/s
Heartbeat CPU 0 instructions: 10000000 cycles: 2500061 heartbeat IPC: 4 cumulative IPC: 4 (Simulation time: 00 hr 03 min 54 sec)
Heartbeat CPU 0 instructions: 20000000 cycles: 5000061 heartbeat IPC: 4 cumulative IPC: 4 (Simulation time: 00 hr 07 min 19 sec)
Heartbeat CPU 0 instructions: 30000000 cycles: 7500061 heartbeat IPC: 4 cumulative IPC: 4 (Simulation time: 00 hr 10 min 35 sec)
Heartbeat CPU 0 instructions: 40000000 cycles: 10000061 heartbeat IPC: 4 cumulative IPC: 4 (Simulation time: 00 hr 14 min 10 sec)
Heartbeat CPU 0 instructions: 50000000 cycles: 12500061 heartbeat IPC: 4 cumulative IPC: 4 (Simulation time: 00 hr 17 min 34 sec)
Warmup finished CPU 0 instructions: 50000000 cycles: 12500062 cumulative IPC: 4 (Simulation time: 00 hr 17 min 34 sec)
Warmup complete CPU 0 instructions: 50000000 cycles: 12500062 cumulative IPC: 4 (Simulation time: 00 hr 17 min 34 sec)
Heartbeat CPU 0 instructions: 60000002 cycles: 16444059 heartbeat IPC: 2.535 cumulative IPC: 2.535 (Simulation time: 00 hr 22 min 11 sec)
Heartbeat CPU 0 instructions: 70000003 cycles: 20759418 heartbeat IPC: 2.317 cumulative IPC: 2.421 (Simulation time: 00 hr 26 min 38 sec)
Heartbeat CPU 0 instructions: 80000003 cycles: 25227156 heartbeat IPC: 2.238 cumulative IPC: 2.357 (Simulation time: 00 hr 30 min 57 sec)
Heartbeat CPU 0 instructions: 90000000 cycles: 28918806 heartbeat IPC: 2.709 cumulative IPC: 2.436 (Simulation time: 00 hr 34 min 47 sec)
Heartbeat CPU 0 instructions: 100000003 cycles: 32815684 heartbeat IPC: 2.566 cumulative IPC: 2.461 (Simulation time: 00 hr 38 min 38 sec)
Heartbeat CPU 0 instructions: 110000002 cycles: 36916725 heartbeat IPC: 2.438 cumulative IPC: 2.457 (Simulation time: 00 hr 42 min 25 sec)
Heartbeat CPU 0 instructions: 120000001 cycles: 40632503 heartbeat IPC: 2.691 cumulative IPC: 2.488 (Simulation time: 00 hr 46 min 03 sec)
Heartbeat CPU 0 instructions: 130000003 cycles: 44402470 heartbeat IPC: 2.653 cumulative IPC: 2.508 (Simulation time: 00 hr 49 min 43 sec)
Heartbeat CPU 0 instructions: 140000002 cycles: 48535204 heartbeat IPC: 2.42 cumulative IPC: 2.498 (Simulation time: 00 hr 53 min 32 sec)
Heartbeat CPU 0 instructions: 150000001 cycles: 52587469 heartbeat IPC: 2.468 cumulative IPC: 2.495 (Simulation time: 00 hr 57 min 19 sec)
Heartbeat CPU 0 instructions: 160000000 cycles: 56245523 heartbeat IPC: 2.734 cumulative IPC: 2.515 (Simulation time: 01 hr 00 min 56 sec)
Heartbeat CPU 0 instructions: 170000001 cycles: 60418847 heartbeat IPC: 2.396 cumulative IPC: 2.504 (Simulation time: 01 hr 04 min 48 sec)
Heartbeat CPU 0 instructions: 180000001 cycles: 63878543 heartbeat IPC: 2.89 cumulative IPC: 2.53 (Simulation time: 01 hr 08 min 24 sec)
Heartbeat CPU 0 instructions: 190000002 cycles: 67461907 heartbeat IPC: 2.791 cumulative IPC: 2.547 (Simulation time: 01 hr 12 min 03 sec)
Heartbeat CPU 0 instructions: 200000002 cycles: 71245565 heartbeat IPC: 2.643 cumulative IPC: 2.553 (Simulation time: 01 hr 15 min 44 sec)
Heartbeat CPU 0 instructions: 210000000 cycles: 74884203 heartbeat IPC: 2.748 cumulative IPC: 2.565 (Simulation time: 01 hr 19 min 21 sec)
Heartbeat CPU 0 instructions: 220000001 cycles: 78749236 heartbeat IPC: 2.587 cumulative IPC: 2.566 (Simulation time: 01 hr 23 min 04 sec)
Heartbeat CPU 0 instructions: 230000002 cycles: 82589077 heartbeat IPC: 2.604 cumulative IPC: 2.568 (Simulation time: 01 hr 26 min 50 sec)
Heartbeat CPU 0 instructions: 240000001 cycles: 86793078 heartbeat IPC: 2.379 cumulative IPC: 2.557 (Simulation time: 01 hr 30 min 46 sec)
Heartbeat CPU 0 instructions: 250000003 cycles: 91359219 heartbeat IPC: 2.19 cumulative IPC: 2.536 (Simulation time: 01 hr 34 min 45 sec)
Heartbeat CPU 0 instructions: 260000000 cycles: 95156632 heartbeat IPC: 2.633 cumulative IPC: 2.541 (Simulation time: 01 hr 38 min 29 sec)
Heartbeat CPU 0 instructions: 270000003 cycles: 102267542 heartbeat IPC: 1.406 cumulative IPC: 2.451 (Simulation time: 01 hr 43 min 58 sec)
Heartbeat CPU 0 instructions: 280000000 cycles: 113648375 heartbeat IPC: 0.8787 cumulative IPC: 2.274 (Simulation time: 01 hr 51 min 35 sec)
Heartbeat CPU 0 instructions: 290000000 cycles: 123636623 heartbeat IPC: 1.001 cumulative IPC: 2.16 (Simulation time: 01 hr 58 min 38 sec)
Heartbeat CPU 0 instructions: 300000003 cycles: 130952360 heartbeat IPC: 1.367 cumulative IPC: 2.111 (Simulation time: 02 hr 04 min 32 sec)
Heartbeat CPU 0 instructions: 310000004 cycles: 141631392 heartbeat IPC: 0.9364 cumulative IPC: 2.013 (Simulation time: 02 hr 12 min 15 sec)
Heartbeat CPU 0 instructions: 320000004 cycles: 146628784 heartbeat IPC: 2.001 cumulative IPC: 2.013 (Simulation time: 02 hr 16 min 49 sec)
Heartbeat CPU 0 instructions: 330000000 cycles: 150703464 heartbeat IPC: 2.454 cumulative IPC: 2.026 (Simulation time: 02 hr 20 min 46 sec)
Heartbeat CPU 0 instructions: 340000001 cycles: 155047515 heartbeat IPC: 2.302 cumulative IPC: 2.034 (Simulation time: 02 hr 24 min 53 sec)
Heartbeat CPU 0 instructions: 350000004 cycles: 159508451 heartbeat IPC: 2.242 cumulative IPC: 2.041 (Simulation time: 02 hr 29 min 06 sec)
Heartbeat CPU 0 instructions: 360000003 cycles: 163664727 heartbeat IPC: 2.406 cumulative IPC: 2.051 (Simulation time: 02 hr 33 min 05 sec)
Heartbeat CPU 0 instructions: 370000001 cycles: 167713660 heartbeat IPC: 2.47 cumulative IPC: 2.062 (Simulation time: 02 hr 36 min 59 sec)
Heartbeat CPU 0 instructions: 380000004 cycles: 171617209 heartbeat IPC: 2.562 cumulative IPC: 2.074 (Simulation time: 02 hr 40 min 53 sec)
Heartbeat CPU 0 instructions: 390000002 cycles: 175728972 heartbeat IPC: 2.432 cumulative IPC: 2.083 (Simulation time: 02 hr 44 min 55 sec)
Heartbeat CPU 0 instructions: 400000000 cycles: 180093002 heartbeat IPC: 2.291 cumulative IPC: 2.088 (Simulation time: 02 hr 48 min 59 sec)
Heartbeat CPU 0 instructions: 410000000 cycles: 187946857 heartbeat IPC: 1.273 cumulative IPC: 2.052 (Simulation time: 02 hr 54 min 56 sec)
Heartbeat CPU 0 instructions: 420000003 cycles: 199353228 heartbeat IPC: 0.8767 cumulative IPC: 1.98 (Simulation time: 03 hr 02 min 45 sec)
Heartbeat CPU 0 instructions: 430000000 cycles: 206874145 heartbeat IPC: 1.33 cumulative IPC: 1.955 (Simulation time: 03 hr 08 min 46 sec)
Heartbeat CPU 0 instructions: 440000004 cycles: 213929230 heartbeat IPC: 1.417 cumulative IPC: 1.936 (Simulation time: 03 hr 14 min 24 sec)
Heartbeat CPU 0 instructions: 450000000 cycles: 220866974 heartbeat IPC: 1.441 cumulative IPC: 1.92 (Simulation time: 03 hr 19 min 58 sec)
Heartbeat CPU 0 instructions: 460000002 cycles: 232200008 heartbeat IPC: 0.8824 cumulative IPC: 1.866 (Simulation time: 03 hr 27 min 46 sec)
Heartbeat CPU 0 instructions: 470000003 cycles: 241600863 heartbeat IPC: 1.064 cumulative IPC: 1.833 (Simulation time: 03 hr 34 min 45 sec)
Heartbeat CPU 0 instructions: 480000003 cycles: 245918629 heartbeat IPC: 2.316 cumulative IPC: 1.842 (Simulation time: 03 hr 38 min 50 sec)
Heartbeat CPU 0 instructions: 490000001 cycles: 250646765 heartbeat IPC: 2.115 cumulative IPC: 1.848 (Simulation time: 03 hr 43 min 10 sec)
Heartbeat CPU 0 instructions: 500000002 cycles: 255156699 heartbeat IPC: 2.217 cumulative IPC: 1.854 (Simulation time: 03 hr 47 min 23 sec)
Heartbeat CPU 0 instructions: 510000000 cycles: 259433403 heartbeat IPC: 2.338 cumulative IPC: 1.863 (Simulation time: 03 hr 51 min 30 sec)
Heartbeat CPU 0 instructions: 520000000 cycles: 263881896 heartbeat IPC: 2.248 cumulative IPC: 1.87 (Simulation time: 03 hr 55 min 42 sec)
Heartbeat CPU 0 instructions: 530000001 cycles: 275806338 heartbeat IPC: 0.8386 cumulative IPC: 1.823 (Simulation time: 04 hr 03 min 46 sec)
Heartbeat CPU 0 instructions: 540000000 cycles: 287271494 heartbeat IPC: 0.8722 cumulative IPC: 1.783 (Simulation time: 04 hr 11 min 45 sec)
Heartbeat CPU 0 instructions: 550000004 cycles: 300233623 heartbeat IPC: 0.7715 cumulative IPC: 1.738 (Simulation time: 04 hr 20 min 14 sec)
Heartbeat CPU 0 instructions: 560000004 cycles: 304506590 heartbeat IPC: 2.34 cumulative IPC: 1.747 (Simulation time: 04 hr 23 min 50 sec)
Heartbeat CPU 0 instructions: 570000001 cycles: 307635066 heartbeat IPC: 3.196 cumulative IPC: 1.762 (Simulation time: 04 hr 27 min 01 sec)
Heartbeat CPU 0 instructions: 580000003 cycles: 311176075 heartbeat IPC: 2.824 cumulative IPC: 1.774 (Simulation time: 04 hr 30 min 14 sec)
Heartbeat CPU 0 instructions: 590000002 cycles: 314799949 heartbeat IPC: 2.759 cumulative IPC: 1.786 (Simulation time: 04 hr 33 min 26 sec)
Heartbeat CPU 0 instructions: 600000003 cycles: 317863601 heartbeat IPC: 3.264 cumulative IPC: 1.801 (Simulation time: 04 hr 36 min 08 sec)
Heartbeat CPU 0 instructions: 610000001 cycles: 321374088 heartbeat IPC: 2.849 cumulative IPC: 1.813 (Simulation time: 04 hr 38 min 45 sec)
Heartbeat CPU 0 instructions: 620000000 cycles: 325390170 heartbeat IPC: 2.49 cumulative IPC: 1.822 (Simulation time: 04 hr 41 min 16 sec)
Heartbeat CPU 0 instructions: 630000002 cycles: 328757590 heartbeat IPC: 2.97 cumulative IPC: 1.834 (Simulation time: 04 hr 43 min 14 sec)
Heartbeat CPU 0 instructions: 640000004 cycles: 332768040 heartbeat IPC: 2.493 cumulative IPC: 1.842 (Simulation time: 04 hr 45 min 18 sec)
Heartbeat CPU 0 instructions: 650000001 cycles: 336591287 heartbeat IPC: 2.616 cumulative IPC: 1.851 (Simulation time: 04 hr 46 min 56 sec)
Simulation finished CPU 0 instructions: 600000001 cycles: 324091226 cumulative IPC: 1.851 (Simulation time: 04 hr 46 min 56 sec)
Simulation complete CPU 0 instructions: 600000001 cycles: 324091226 cumulative IPC: 1.851 (Simulation time: 04 hr 46 min 56 sec)

ChampSim completed all CPUs

=== Simulation ===
CPU 0 runs traces/400.perlbench-50B.champsimtrace.xz
Region of Interest Statistics

CPU 0 cumulative IPC: 1.851 instructions: 600000001 cycles: 324091226
CPU 0 Branch Prediction Accuracy: 96.2% MPKI: 7.839 Average ROB Occupancy at Mispredict: 43.42
Branch type MPKI
BRANCH_DIRECT_JUMP: 0.0176
BRANCH_INDIRECT: 0.38
BRANCH_CONDITIONAL: 6.99
BRANCH_DIRECT_CALL: 0.0067
BRANCH_INDIRECT_CALL: 0.431
BRANCH_RETURN: 0.0161

LLC TOTAL        ACCESS:     565899 HIT:     227771 MISS:     338128
LLC LOAD         ACCESS:     376550 HIT:     113245 MISS:     263305
LLC RFO          ACCESS:      32923 HIT:      12698 MISS:      20225
LLC PREFETCH     ACCESS:      54400 HIT:      24427 MISS:      29973
LLC WRITE        ACCESS:      83917 HIT:      70686 MISS:      13231
LLC TRANSLATION  ACCESS:      18109 HIT:       6715 MISS:      11394
LLC PREFETCH REQUESTED:      54400 ISSUED:      54400 USEFUL:      18610 USELESS:       6069
LLC AVERAGE MISS LATENCY: 527.8 cycles
cpu0_DTLB TOTAL        ACCESS:  146479881 HIT:  145177474 MISS:    1302407
cpu0_DTLB LOAD         ACCESS:  146479881 HIT:  145177474 MISS:    1302407
cpu0_DTLB RFO          ACCESS:          0 HIT:          0 MISS:          0
cpu0_DTLB PREFETCH     ACCESS:          0 HIT:          0 MISS:          0
cpu0_DTLB WRITE        ACCESS:          0 HIT:          0 MISS:          0
cpu0_DTLB TRANSLATION  ACCESS:          0 HIT:          0 MISS:          0
cpu0_DTLB PREFETCH REQUESTED:          0 ISSUED:          0 USEFUL:          0 USELESS:          0
cpu0_DTLB AVERAGE MISS LATENCY: 11.64 cycles
cpu0_ITLB TOTAL        ACCESS:    8990917 HIT:    8806182 MISS:     184735
cpu0_ITLB LOAD         ACCESS:    8990917 HIT:    8806182 MISS:     184735
cpu0_ITLB RFO          ACCESS:          0 HIT:          0 MISS:          0
cpu0_ITLB PREFETCH     ACCESS:          0 HIT:          0 MISS:          0
cpu0_ITLB WRITE        ACCESS:          0 HIT:          0 MISS:          0
cpu0_ITLB TRANSLATION  ACCESS:          0 HIT:          0 MISS:          0
cpu0_ITLB PREFETCH REQUESTED:          0 ISSUED:          0 USEFUL:          0 USELESS:          0
cpu0_ITLB AVERAGE MISS LATENCY: 3.46 cycles
cpu0_L1D TOTAL        ACCESS:  193295762 HIT:  190451632 MISS:    2844130
cpu0_L1D LOAD         ACCESS:  107448687 HIT:  105108007 MISS:    2340680
cpu0_L1D RFO          ACCESS:          0 HIT:          0 MISS:          0
cpu0_L1D PREFETCH     ACCESS:          0 HIT:          0 MISS:          0
cpu0_L1D WRITE        ACCESS:   85818548 HIT:   85341608 MISS:     476940
cpu0_L1D TRANSLATION  ACCESS:      28527 HIT:       2017 MISS:      26510
cpu0_L1D PREFETCH REQUESTED:          0 ISSUED:          0 USEFUL:          0 USELESS:          0
cpu0_L1D AVERAGE MISS LATENCY: 60.29 cycles
cpu0_L1I TOTAL        ACCESS:   10424773 HIT:    8661216 MISS:    1763557
cpu0_L1I LOAD         ACCESS:   10424773 HIT:    8661216 MISS:    1763557
cpu0_L1I RFO          ACCESS:          0 HIT:          0 MISS:          0
cpu0_L1I PREFETCH     ACCESS:          0 HIT:          0 MISS:          0
cpu0_L1I WRITE        ACCESS:          0 HIT:          0 MISS:          0
cpu0_L1I TRANSLATION  ACCESS:          0 HIT:          0 MISS:          0
cpu0_L1I PREFETCH REQUESTED:          0 ISSUED:          0 USEFUL:          0 USELESS:          0
cpu0_L1I AVERAGE MISS LATENCY: 10.97 cycles
cpu0_L2C TOTAL        ACCESS:    3232373 HIT:    2803872 MISS:     428501
cpu0_L2C LOAD         ACCESS:    2710092 HIT:    2333542 MISS:     376550
cpu0_L2C RFO          ACCESS:     133270 HIT:     100347 MISS:      32923
cpu0_L2C PREFETCH     ACCESS:          0 HIT:          0 MISS:          0
cpu0_L2C WRITE        ACCESS:     362563 HIT:     361644 MISS:        919
cpu0_L2C TRANSLATION  ACCESS:      26448 HIT:       8339 MISS:      18109
cpu0_L2C PREFETCH REQUESTED:          0 ISSUED:          0 USEFUL:          0 USELESS:          0
cpu0_L2C AVERAGE MISS LATENCY: 395.1 cycles
cpu0_STLB TOTAL        ACCESS:    1008315 HIT:     981619 MISS:      26696
cpu0_STLB LOAD         ACCESS:    1008315 HIT:     981619 MISS:      26696
cpu0_STLB RFO          ACCESS:          0 HIT:          0 MISS:          0
cpu0_STLB PREFETCH     ACCESS:          0 HIT:          0 MISS:          0
cpu0_STLB WRITE        ACCESS:          0 HIT:          0 MISS:          0
cpu0_STLB TRANSLATION  ACCESS:          0 HIT:          0 MISS:          0
cpu0_STLB PREFETCH REQUESTED:          0 ISSUED:          0 USEFUL:          0 USELESS:          0
cpu0_STLB AVERAGE MISS LATENCY: 349.1 cycles

DRAM Statistics

Channel 0 RQ ROW_BUFFER_HIT:      63818
  ROW_BUFFER_MISS:     255812
 AVG DBUS CONGESTED CYCLE: 3.813
WQ ROW_BUFFER_HIT: Channel 0 
  ROW_BUFFER_MISS:       9442
  FULL:      37389
