WARNING: physical memory size is smaller than virtual memory size.

*** ChampSim Multicore Out-of-Order Simulator ***
Warmup Instructions: 50000000
Simulation Instructions: 600000000
Number of CPUs: 1
Page size: 4096

CPU 0 Tage branch predictor
Off-chip DRAM Size: 4 GiB Channels: 1 Width: 64-bit Data Race: 3200 MT/s
Heartbeat CPU 0 instructions: 10000001 cycles: 2500318 heartbeat IPC: 3.999 cumulative IPC: 3.999 (Simulation time: 00 hr 04 min 54 sec)
Heartbeat CPU 0 instructions: 20000002 cycles: 5037099 heartbeat IPC: 3.942 cumulative IPC: 3.971 (Simulation time: 00 hr 09 min 32 sec)
Heartbeat CPU 0 instructions: 30000002 cycles: 7537099 heartbeat IPC: 4 cumulative IPC: 3.98 (Simulation time: 00 hr 13 min 48 sec)
Heartbeat CPU 0 instructions: 40000002 cycles: 10037099 heartbeat IPC: 4 cumulative IPC: 3.985 (Simulation time: 00 hr 18 min 09 sec)
Heartbeat CPU 0 instructions: 50000002 cycles: 12537099 heartbeat IPC: 4 cumulative IPC: 3.988 (Simulation time: 00 hr 22 min 27 sec)
Warmup finished CPU 0 instructions: 50000002 cycles: 12537100 cumulative IPC: 3.988 (Simulation time: 00 hr 22 min 27 sec)
Warmup complete CPU 0 instructions: 50000002 cycles: 12537100 cumulative IPC: 3.988 (Simulation time: 00 hr 22 min 27 sec)
Heartbeat CPU 0 instructions: 60000001 cycles: 15521383 heartbeat IPC: 3.351 cumulative IPC: 3.351 (Simulation time: 00 hr 27 min 38 sec)
Heartbeat CPU 0 instructions: 70000004 cycles: 18601924 heartbeat IPC: 3.246 cumulative IPC: 3.298 (Simulation time: 00 hr 32 min 52 sec)
Heartbeat CPU 0 instructions: 80000001 cycles: 21658477 heartbeat IPC: 3.272 cumulative IPC: 3.289 (Simulation time: 00 hr 38 min 05 sec)
Heartbeat CPU 0 instructions: 90000001 cycles: 24612168 heartbeat IPC: 3.386 cumulative IPC: 3.313 (Simulation time: 00 hr 43 min 15 sec)
Heartbeat CPU 0 instructions: 100000000 cycles: 27534507 heartbeat IPC: 3.422 cumulative IPC: 3.334 (Simulation time: 00 hr 48 min 24 sec)
Heartbeat CPU 0 instructions: 110000000 cycles: 30490139 heartbeat IPC: 3.383 cumulative IPC: 3.342 (Simulation time: 00 hr 53 min 31 sec)
Heartbeat CPU 0 instructions: 120000001 cycles: 33476054 heartbeat IPC: 3.349 cumulative IPC: 3.343 (Simulation time: 00 hr 58 min 43 sec)
Heartbeat CPU 0 instructions: 130000001 cycles: 36344101 heartbeat IPC: 3.487 cumulative IPC: 3.36 (Simulation time: 01 hr 03 min 54 sec)
Heartbeat CPU 0 instructions: 140000001 cycles: 39402098 heartbeat IPC: 3.27 cumulative IPC: 3.35 (Simulation time: 01 hr 09 min 09 sec)
Heartbeat CPU 0 instructions: 150000001 cycles: 42425501 heartbeat IPC: 3.308 cumulative IPC: 3.346 (Simulation time: 01 hr 14 min 42 sec)
Heartbeat CPU 0 instructions: 160000004 cycles: 45458793 heartbeat IPC: 3.297 cumulative IPC: 3.341 (Simulation time: 01 hr 20 min 03 sec)
Heartbeat CPU 0 instructions: 170000004 cycles: 51624998 heartbeat IPC: 1.622 cumulative IPC: 3.07 (Simulation time: 01 hr 27 min 44 sec)
Heartbeat CPU 0 instructions: 180000004 cycles: 58164945 heartbeat IPC: 1.529 cumulative IPC: 2.849 (Simulation time: 01 hr 35 min 13 sec)
Heartbeat CPU 0 instructions: 190000001 cycles: 66662683 heartbeat IPC: 1.177 cumulative IPC: 2.587 (Simulation time: 01 hr 43 min 39 sec)
Heartbeat CPU 0 instructions: 200000004 cycles: 69638503 heartbeat IPC: 3.36 cumulative IPC: 2.627 (Simulation time: 01 hr 48 min 21 sec)
Heartbeat CPU 0 instructions: 210000001 cycles: 72602612 heartbeat IPC: 3.374 cumulative IPC: 2.664 (Simulation time: 01 hr 53 min 09 sec)
Heartbeat CPU 0 instructions: 220000000 cycles: 75500971 heartbeat IPC: 3.45 cumulative IPC: 2.7 (Simulation time: 01 hr 57 min 51 sec)
Heartbeat CPU 0 instructions: 230000002 cycles: 78535482 heartbeat IPC: 3.295 cumulative IPC: 2.727 (Simulation time: 02 hr 02 min 39 sec)
Heartbeat CPU 0 instructions: 240000003 cycles: 81581355 heartbeat IPC: 3.283 cumulative IPC: 2.752 (Simulation time: 02 hr 07 min 25 sec)
Heartbeat CPU 0 instructions: 250000000 cycles: 84614050 heartbeat IPC: 3.297 cumulative IPC: 2.775 (Simulation time: 02 hr 12 min 12 sec)
Heartbeat CPU 0 instructions: 260000002 cycles: 87597458 heartbeat IPC: 3.352 cumulative IPC: 2.798 (Simulation time: 02 hr 16 min 56 sec)
Heartbeat CPU 0 instructions: 270000002 cycles: 90515710 heartbeat IPC: 3.427 cumulative IPC: 2.821 (Simulation time: 02 hr 21 min 35 sec)
Heartbeat CPU 0 instructions: 280000002 cycles: 93414630 heartbeat IPC: 3.45 cumulative IPC: 2.844 (Simulation time: 02 hr 26 min 13 sec)
Heartbeat CPU 0 instructions: 290000002 cycles: 96382681 heartbeat IPC: 3.369 cumulative IPC: 2.862 (Simulation time: 02 hr 30 min 55 sec)
Heartbeat CPU 0 instructions: 300000003 cycles: 99300245 heartbeat IPC: 3.428 cumulative IPC: 2.881 (Simulation time: 02 hr 35 min 39 sec)
Heartbeat CPU 0 instructions: 310000001 cycles: 102353352 heartbeat IPC: 3.275 cumulative IPC: 2.895 (Simulation time: 02 hr 40 min 25 sec)
Heartbeat CPU 0 instructions: 320000003 cycles: 105377580 heartbeat IPC: 3.307 cumulative IPC: 2.908 (Simulation time: 02 hr 45 min 08 sec)
Heartbeat CPU 0 instructions: 330000003 cycles: 108387702 heartbeat IPC: 3.322 cumulative IPC: 2.921 (Simulation time: 02 hr 49 min 53 sec)
Heartbeat CPU 0 instructions: 340000000 cycles: 114738528 heartbeat IPC: 1.575 cumulative IPC: 2.838 (Simulation time: 02 hr 56 min 53 sec)
Heartbeat CPU 0 instructions: 350000000 cycles: 121735878 heartbeat IPC: 1.429 cumulative IPC: 2.747 (Simulation time: 03 hr 04 min 22 sec)
Heartbeat CPU 0 instructions: 360000004 cycles: 130236028 heartbeat IPC: 1.176 cumulative IPC: 2.634 (Simulation time: 03 hr 12 min 52 sec)
Heartbeat CPU 0 instructions: 370000000 cycles: 133212587 heartbeat IPC: 3.36 cumulative IPC: 2.652 (Simulation time: 03 hr 17 min 33 sec)
Heartbeat CPU 0 instructions: 380000003 cycles: 136138586 heartbeat IPC: 3.418 cumulative IPC: 2.67 (Simulation time: 03 hr 22 min 16 sec)
Heartbeat CPU 0 instructions: 390000002 cycles: 139122580 heartbeat IPC: 3.351 cumulative IPC: 2.686 (Simulation time: 03 hr 26 min 59 sec)
Heartbeat CPU 0 instructions: 400000004 cycles: 142031510 heartbeat IPC: 3.438 cumulative IPC: 2.703 (Simulation time: 03 hr 31 min 39 sec)
Heartbeat CPU 0 instructions: 410000002 cycles: 144977846 heartbeat IPC: 3.394 cumulative IPC: 2.718 (Simulation time: 03 hr 36 min 21 sec)
Heartbeat CPU 0 instructions: 420000003 cycles: 148111745 heartbeat IPC: 3.191 cumulative IPC: 2.729 (Simulation time: 03 hr 41 min 06 sec)
Heartbeat CPU 0 instructions: 430000001 cycles: 151138294 heartbeat IPC: 3.304 cumulative IPC: 2.742 (Simulation time: 03 hr 45 min 52 sec)
Heartbeat CPU 0 instructions: 440000004 cycles: 154285965 heartbeat IPC: 3.177 cumulative IPC: 2.751 (Simulation time: 03 hr 50 min 43 sec)
Heartbeat CPU 0 instructions: 450000002 cycles: 157218562 heartbeat IPC: 3.41 cumulative IPC: 2.765 (Simulation time: 03 hr 55 min 26 sec)
Heartbeat CPU 0 instructions: 460000000 cycles: 160162569 heartbeat IPC: 3.397 cumulative IPC: 2.777 (Simulation time: 04 hr 00 min 08 sec)
Heartbeat CPU 0 instructions: 470000001 cycles: 163025015 heartbeat IPC: 3.494 cumulative IPC: 2.791 (Simulation time: 04 hr 04 min 45 sec)
Heartbeat CPU 0 instructions: 480000003 cycles: 166112885 heartbeat IPC: 3.238 cumulative IPC: 2.8 (Simulation time: 04 hr 09 min 31 sec)
Heartbeat CPU 0 instructions: 490000004 cycles: 168950722 heartbeat IPC: 3.524 cumulative IPC: 2.813 (Simulation time: 04 hr 14 min 06 sec)
Heartbeat CPU 0 instructions: 500000004 cycles: 171943397 heartbeat IPC: 3.341 cumulative IPC: 2.823 (Simulation time: 04 hr 18 min 49 sec)
Heartbeat CPU 0 instructions: 510000003 cycles: 175019791 heartbeat IPC: 3.251 cumulative IPC: 2.831 (Simulation time: 04 hr 23 min 54 sec)
Heartbeat CPU 0 instructions: 520000001 cycles: 177916936 heartbeat IPC: 3.452 cumulative IPC: 2.842 (Simulation time: 04 hr 28 min 39 sec)
Heartbeat CPU 0 instructions: 530000001 cycles: 180938193 heartbeat IPC: 3.31 cumulative IPC: 2.85 (Simulation time: 04 hr 33 min 23 sec)
Heartbeat CPU 0 instructions: 540000000 cycles: 183904037 heartbeat IPC: 3.372 cumulative IPC: 2.859 (Simulation time: 04 hr 38 min 05 sec)
Heartbeat CPU 0 instructions: 550000001 cycles: 186895752 heartbeat IPC: 3.343 cumulative IPC: 2.868 (Simulation time: 04 hr 42 min 46 sec)
Heartbeat CPU 0 instructions: 560000000 cycles: 190026991 heartbeat IPC: 3.194 cumulative IPC: 2.873 (Simulation time: 04 hr 47 min 34 sec)
Heartbeat CPU 0 instructions: 570000004 cycles: 195214761 heartbeat IPC: 1.928 cumulative IPC: 2.847 (Simulation time: 04 hr 53 min 44 sec)
Heartbeat CPU 0 instructions: 580000003 cycles: 200905265 heartbeat IPC: 1.757 cumulative IPC: 2.814 (Simulation time: 05 hr 00 min 38 sec)
Heartbeat CPU 0 instructions: 590000002 cycles: 211673677 heartbeat IPC: 0.9286 cumulative IPC: 2.712 (Simulation time: 05 hr 10 min 34 sec)
Heartbeat CPU 0 instructions: 600000004 cycles: 214788786 heartbeat IPC: 3.21 cumulative IPC: 2.719 (Simulation time: 05 hr 15 min 31 sec)
Heartbeat CPU 0 instructions: 610000002 cycles: 217763346 heartbeat IPC: 3.362 cumulative IPC: 2.729 (Simulation time: 05 hr 20 min 28 sec)
Heartbeat CPU 0 instructions: 620000001 cycles: 220538469 heartbeat IPC: 3.603 cumulative IPC: 2.74 (Simulation time: 05 hr 25 min 10 sec)
Heartbeat CPU 0 instructions: 630000002 cycles: 223515309 heartbeat IPC: 3.359 cumulative IPC: 2.749 (Simulation time: 05 hr 30 min 09 sec)
Heartbeat CPU 0 instructions: 640000004 cycles: 226467450 heartbeat IPC: 3.387 cumulative IPC: 2.758 (Simulation time: 05 hr 35 min 02 sec)
Heartbeat CPU 0 instructions: 650000000 cycles: 229218009 heartbeat IPC: 3.636 cumulative IPC: 2.769 (Simulation time: 05 hr 39 min 42 sec)
Simulation finished CPU 0 instructions: 600000001 cycles: 216680911 cumulative IPC: 2.769 (Simulation time: 05 hr 39 min 42 sec)
Simulation complete CPU 0 instructions: 600000001 cycles: 216680911 cumulative IPC: 2.769 (Simulation time: 05 hr 39 min 42 sec)

ChampSim completed all CPUs

=== Simulation ===
CPU 0 runs traces/400.perlbench-41B.champsimtrace.xz
Region of Interest Statistics

CPU 0 cumulative IPC: 2.769 instructions: 600000001 cycles: 216680911
CPU 0 Branch Prediction Accuracy: 99.19% MPKI: 1.684 Average ROB Occupancy at Mispredict: 101.7
Branch type MPKI
BRANCH_DIRECT_JUMP: 0.0123
BRANCH_INDIRECT: 0.323
BRANCH_CONDITIONAL: 1.14
BRANCH_DIRECT_CALL: 0.0043
BRANCH_INDIRECT_CALL: 0.2
BRANCH_RETURN: 0.00828

LLC TOTAL        ACCESS:     463498 HIT:     205067 MISS:     258431
LLC LOAD         ACCESS:     309487 HIT:     134613 MISS:     174874
LLC RFO          ACCESS:      25105 HIT:       9882 MISS:      15223
LLC PREFETCH     ACCESS:      49087 HIT:      26266 MISS:      22821
LLC WRITE        ACCESS:      64094 HIT:      31734 MISS:      32360
LLC TRANSLATION  ACCESS:      15725 HIT:       2572 MISS:      13153
LLC PREFETCH REQUESTED:      49087 ISSUED:      49087 USEFUL:      12716 USELESS:       7155
LLC AVERAGE MISS LATENCY: 571.2 cycles
cpu0_DTLB TOTAL        ACCESS:  129732968 HIT:  129029977 MISS:     702991
cpu0_DTLB LOAD         ACCESS:  129732968 HIT:  129029977 MISS:     702991
cpu0_DTLB RFO          ACCESS:          0 HIT:          0 MISS:          0
cpu0_DTLB PREFETCH     ACCESS:          0 HIT:          0 MISS:          0
cpu0_DTLB WRITE        ACCESS:          0 HIT:          0 MISS:          0
cpu0_DTLB TRANSLATION  ACCESS:          0 HIT:          0 MISS:          0
cpu0_DTLB PREFETCH REQUESTED:          0 ISSUED:          0 USEFUL:          0 USELESS:          0
cpu0_DTLB AVERAGE MISS LATENCY: 17.56 cycles
cpu0_ITLB TOTAL        ACCESS:    4875870 HIT:    4813181 MISS:      62689
cpu0_ITLB LOAD         ACCESS:    4875870 HIT:    4813181 MISS:      62689
cpu0_ITLB RFO          ACCESS:          0 HIT:          0 MISS:          0
cpu0_ITLB PREFETCH     ACCESS:          0 HIT:          0 MISS:          0
cpu0_ITLB WRITE        ACCESS:          0 HIT:          0 MISS:          0
cpu0_ITLB TRANSLATION  ACCESS:          0 HIT:          0 MISS:          0
cpu0_ITLB PREFETCH REQUESTED:          0 ISSUED:          0 USEFUL:          0 USELESS:          0
cpu0_ITLB AVERAGE MISS LATENCY: 6.021 cycles
cpu0_L1D TOTAL        ACCESS:  174341467 HIT:  172973482 MISS:    1367985
cpu0_L1D LOAD         ACCESS:   91319154 HIT:   90264043 MISS:    1055111
cpu0_L1D RFO          ACCESS:          0 HIT:          0 MISS:          0
cpu0_L1D PREFETCH     ACCESS:          0 HIT:          0 MISS:          0
cpu0_L1D WRITE        ACCESS:   82997847 HIT:   82707829 MISS:     290018
cpu0_L1D TRANSLATION  ACCESS:      24466 HIT:       1610 MISS:      22856
cpu0_L1D PREFETCH REQUESTED:          0 ISSUED:          0 USEFUL:          0 USELESS:          0
cpu0_L1D AVERAGE MISS LATENCY: 96.79 cycles
cpu0_L1I TOTAL        ACCESS:    5654758 HIT:    4848688 MISS:     806070
cpu0_L1I LOAD         ACCESS:    5654758 HIT:    4848688 MISS:     806070
cpu0_L1I RFO          ACCESS:          0 HIT:          0 MISS:          0
cpu0_L1I PREFETCH     ACCESS:          0 HIT:          0 MISS:          0
cpu0_L1I WRITE        ACCESS:          0 HIT:          0 MISS:          0
cpu0_L1I TRANSLATION  ACCESS:          0 HIT:          0 MISS:          0
cpu0_L1I PREFETCH REQUESTED:          0 ISSUED:          0 USEFUL:          0 USELESS:          0
cpu0_L1I AVERAGE MISS LATENCY: 11.42 cycles
cpu0_L2C TOTAL        ACCESS:    1381586 HIT:    1030388 MISS:     351198
cpu0_L2C LOAD         ACCESS:    1124033 HIT:     814546 MISS:     309487
cpu0_L2C RFO          ACCESS:      64478 HIT:      39373 MISS:      25105
cpu0_L2C PREFETCH     ACCESS:          0 HIT:          0 MISS:          0
cpu0_L2C WRITE        ACCESS:     170299 HIT:     169418 MISS:        881
cpu0_L2C TRANSLATION  ACCESS:      22776 HIT:       7051 MISS:      15725
cpu0_L2C PREFETCH REQUESTED:          0 ISSUED:          0 USEFUL:          0 USELESS:          0
cpu0_L2C AVERAGE MISS LATENCY: 395.2 cycles
cpu0_STLB TOTAL        ACCESS:     508894 HIT:     486108 MISS:      22786
cpu0_STLB LOAD         ACCESS:     508894 HIT:     486108 MISS:      22786
cpu0_STLB RFO          ACCESS:          0 HIT:          0 MISS:          0
cpu0_STLB PREFETCH     ACCESS:          0 HIT:          0 MISS:          0
cpu0_STLB WRITE        ACCESS:          0 HIT:          0 MISS:          0
cpu0_STLB TRANSLATION  ACCESS:          0 HIT:          0 MISS:          0
cpu0_STLB PREFETCH REQUESTED:          0 ISSUED:          0 USEFUL:          0 USELESS:          0
cpu0_STLB AVERAGE MISS LATENCY: 441 cycles

DRAM Statistics

Channel 0 RQ ROW_BUFFER_HIT:      36926
  ROW_BUFFER_MISS:     184669
 AVG DBUS CONGESTED CYCLE: 3.849
WQ ROW_BUFFER_HIT: Channel 0 
  ROW_BUFFER_MISS:       5774
  FULL:      29033
