WARNING: physical memory size is smaller than virtual memory size.

*** ChampSim Multicore Out-of-Order Simulator ***
Warmup Instructions: 50000000
Simulation Instructions: 600000000
Number of CPUs: 1
Page size: 4096

CPU 0 Tage branch predictor
Off-chip DRAM Size: 4 GiB Channels: 1 Width: 64-bit Data Race: 3200 MT/s
Heartbeat CPU 0 instructions: 10000000 cycles: 2500062 heartbeat IPC: 4 cumulative IPC: 4 (Simulation time: 00 hr 02 min 18 sec)
Heartbeat CPU 0 instructions: 20000000 cycles: 5000062 heartbeat IPC: 4 cumulative IPC: 4 (Simulation time: 00 hr 05 min 41 sec)
Heartbeat CPU 0 instructions: 30000000 cycles: 7500062 heartbeat IPC: 4 cumulative IPC: 4 (Simulation time: 00 hr 09 min 52 sec)
Heartbeat CPU 0 instructions: 40000000 cycles: 10000062 heartbeat IPC: 4 cumulative IPC: 4 (Simulation time: 00 hr 14 min 00 sec)
Heartbeat CPU 0 instructions: 50000000 cycles: 12500062 heartbeat IPC: 4 cumulative IPC: 4 (Simulation time: 00 hr 18 min 09 sec)
Warmup finished CPU 0 instructions: 50000000 cycles: 12500063 cumulative IPC: 4 (Simulation time: 00 hr 18 min 09 sec)
Warmup complete CPU 0 instructions: 50000000 cycles: 12500063 cumulative IPC: 4 (Simulation time: 00 hr 18 min 09 sec)
Heartbeat CPU 0 instructions: 60000004 cycles: 15548215 heartbeat IPC: 3.281 cumulative IPC: 3.281 (Simulation time: 00 hr 23 min 09 sec)
Heartbeat CPU 0 instructions: 70000003 cycles: 18498727 heartbeat IPC: 3.389 cumulative IPC: 3.334 (Simulation time: 00 hr 28 min 05 sec)
Heartbeat CPU 0 instructions: 80000002 cycles: 21585705 heartbeat IPC: 3.239 cumulative IPC: 3.302 (Simulation time: 00 hr 33 min 07 sec)
Heartbeat CPU 0 instructions: 90000000 cycles: 24341211 heartbeat IPC: 3.629 cumulative IPC: 3.378 (Simulation time: 00 hr 37 min 52 sec)
Heartbeat CPU 0 instructions: 100000003 cycles: 27160000 heartbeat IPC: 3.548 cumulative IPC: 3.411 (Simulation time: 00 hr 42 min 46 sec)
Heartbeat CPU 0 instructions: 110000001 cycles: 30114425 heartbeat IPC: 3.385 cumulative IPC: 3.406 (Simulation time: 00 hr 47 min 40 sec)
Heartbeat CPU 0 instructions: 120000001 cycles: 32858964 heartbeat IPC: 3.644 cumulative IPC: 3.438 (Simulation time: 00 hr 52 min 33 sec)
Heartbeat CPU 0 instructions: 130000003 cycles: 35831076 heartbeat IPC: 3.365 cumulative IPC: 3.429 (Simulation time: 00 hr 57 min 28 sec)
Heartbeat CPU 0 instructions: 140000002 cycles: 38697897 heartbeat IPC: 3.488 cumulative IPC: 3.435 (Simulation time: 01 hr 02 min 17 sec)
Heartbeat CPU 0 instructions: 150000001 cycles: 41511936 heartbeat IPC: 3.554 cumulative IPC: 3.447 (Simulation time: 01 hr 07 min 03 sec)
Heartbeat CPU 0 instructions: 160000000 cycles: 44469430 heartbeat IPC: 3.381 cumulative IPC: 3.441 (Simulation time: 01 hr 11 min 53 sec)
Heartbeat CPU 0 instructions: 170000001 cycles: 47447450 heartbeat IPC: 3.358 cumulative IPC: 3.434 (Simulation time: 01 hr 16 min 54 sec)
Heartbeat CPU 0 instructions: 180000000 cycles: 50286830 heartbeat IPC: 3.522 cumulative IPC: 3.44 (Simulation time: 01 hr 21 min 52 sec)
Heartbeat CPU 0 instructions: 190000002 cycles: 53040919 heartbeat IPC: 3.631 cumulative IPC: 3.453 (Simulation time: 01 hr 26 min 47 sec)
Heartbeat CPU 0 instructions: 200000002 cycles: 55929087 heartbeat IPC: 3.462 cumulative IPC: 3.454 (Simulation time: 01 hr 31 min 42 sec)
Heartbeat CPU 0 instructions: 210000000 cycles: 58857056 heartbeat IPC: 3.415 cumulative IPC: 3.451 (Simulation time: 01 hr 36 min 36 sec)
Heartbeat CPU 0 instructions: 220000001 cycles: 61674941 heartbeat IPC: 3.549 cumulative IPC: 3.457 (Simulation time: 01 hr 41 min 32 sec)
Heartbeat CPU 0 instructions: 230000002 cycles: 64622917 heartbeat IPC: 3.392 cumulative IPC: 3.453 (Simulation time: 01 hr 46 min 29 sec)
Heartbeat CPU 0 instructions: 240000004 cycles: 67642690 heartbeat IPC: 3.312 cumulative IPC: 3.446 (Simulation time: 01 hr 51 min 26 sec)
Heartbeat CPU 0 instructions: 250000003 cycles: 70640743 heartbeat IPC: 3.335 cumulative IPC: 3.44 (Simulation time: 01 hr 56 min 24 sec)
Heartbeat CPU 0 instructions: 260000001 cycles: 73485334 heartbeat IPC: 3.515 cumulative IPC: 3.443 (Simulation time: 02 hr 01 min 17 sec)
Heartbeat CPU 0 instructions: 270000002 cycles: 79403388 heartbeat IPC: 1.69 cumulative IPC: 3.288 (Simulation time: 02 hr 08 min 10 sec)
Heartbeat CPU 0 instructions: 280000000 cycles: 89052204 heartbeat IPC: 1.036 cumulative IPC: 3.004 (Simulation time: 02 hr 17 min 58 sec)
Heartbeat CPU 0 instructions: 290000000 cycles: 96583150 heartbeat IPC: 1.328 cumulative IPC: 2.854 (Simulation time: 02 hr 26 min 22 sec)
Heartbeat CPU 0 instructions: 300000003 cycles: 101755380 heartbeat IPC: 1.933 cumulative IPC: 2.801 (Simulation time: 02 hr 33 min 16 sec)
Heartbeat CPU 0 instructions: 310000001 cycles: 110231752 heartbeat IPC: 1.18 cumulative IPC: 2.66 (Simulation time: 02 hr 42 min 31 sec)
Heartbeat CPU 0 instructions: 320000004 cycles: 114085004 heartbeat IPC: 2.595 cumulative IPC: 2.658 (Simulation time: 02 hr 48 min 18 sec)
Heartbeat CPU 0 instructions: 330000000 cycles: 117311437 heartbeat IPC: 3.099 cumulative IPC: 2.671 (Simulation time: 02 hr 53 min 31 sec)
Heartbeat CPU 0 instructions: 340000001 cycles: 120651936 heartbeat IPC: 2.994 cumulative IPC: 2.681 (Simulation time: 02 hr 58 min 52 sec)
Heartbeat CPU 0 instructions: 350000000 cycles: 124205850 heartbeat IPC: 2.814 cumulative IPC: 2.686 (Simulation time: 03 hr 04 min 21 sec)
Heartbeat CPU 0 instructions: 360000004 cycles: 127505302 heartbeat IPC: 3.031 cumulative IPC: 2.696 (Simulation time: 03 hr 09 min 41 sec)
Heartbeat CPU 0 instructions: 370000001 cycles: 130747325 heartbeat IPC: 3.084 cumulative IPC: 2.706 (Simulation time: 03 hr 14 min 57 sec)
Heartbeat CPU 0 instructions: 380000004 cycles: 134018323 heartbeat IPC: 3.057 cumulative IPC: 2.716 (Simulation time: 03 hr 20 min 08 sec)
Heartbeat CPU 0 instructions: 390000002 cycles: 137489568 heartbeat IPC: 2.881 cumulative IPC: 2.72 (Simulation time: 03 hr 25 min 36 sec)
Heartbeat CPU 0 instructions: 400000000 cycles: 140982209 heartbeat IPC: 2.863 cumulative IPC: 2.724 (Simulation time: 03 hr 30 min 58 sec)
Heartbeat CPU 0 instructions: 410000000 cycles: 147305987 heartbeat IPC: 1.581 cumulative IPC: 2.671 (Simulation time: 03 hr 38 min 16 sec)
Heartbeat CPU 0 instructions: 420000003 cycles: 156461815 heartbeat IPC: 1.092 cumulative IPC: 2.57 (Simulation time: 03 hr 47 min 52 sec)
Heartbeat CPU 0 instructions: 430000004 cycles: 162110420 heartbeat IPC: 1.77 cumulative IPC: 2.54 (Simulation time: 03 hr 55 min 06 sec)
Heartbeat CPU 0 instructions: 440000004 cycles: 167043518 heartbeat IPC: 2.027 cumulative IPC: 2.524 (Simulation time: 04 hr 01 min 44 sec)
Heartbeat CPU 0 instructions: 450000000 cycles: 171659940 heartbeat IPC: 2.166 cumulative IPC: 2.513 (Simulation time: 04 hr 08 min 11 sec)
Heartbeat CPU 0 instructions: 460000002 cycles: 180391837 heartbeat IPC: 1.145 cumulative IPC: 2.442 (Simulation time: 04 hr 17 min 25 sec)
Heartbeat CPU 0 instructions: 470000003 cycles: 188089446 heartbeat IPC: 1.299 cumulative IPC: 2.392 (Simulation time: 04 hr 26 min 02 sec)
Heartbeat CPU 0 instructions: 480000000 cycles: 191627553 heartbeat IPC: 2.826 cumulative IPC: 2.401 (Simulation time: 04 hr 31 min 27 sec)
Heartbeat CPU 0 instructions: 490000001 cycles: 195590500 heartbeat IPC: 2.523 cumulative IPC: 2.403 (Simulation time: 04 hr 37 min 11 sec)
Heartbeat CPU 0 instructions: 500000002 cycles: 199363517 heartbeat IPC: 2.65 cumulative IPC: 2.408 (Simulation time: 04 hr 42 min 46 sec)
Heartbeat CPU 0 instructions: 510000000 cycles: 203101211 heartbeat IPC: 2.675 cumulative IPC: 2.413 (Simulation time: 04 hr 48 min 25 sec)
Heartbeat CPU 0 instructions: 520000000 cycles: 206908358 heartbeat IPC: 2.627 cumulative IPC: 2.418 (Simulation time: 04 hr 54 min 03 sec)
Heartbeat CPU 0 instructions: 530000001 cycles: 216237646 heartbeat IPC: 1.072 cumulative IPC: 2.356 (Simulation time: 05 hr 03 min 35 sec)
Heartbeat CPU 0 instructions: 540000000 cycles: 225342363 heartbeat IPC: 1.098 cumulative IPC: 2.302 (Simulation time: 05 hr 13 min 00 sec)
Heartbeat CPU 0 instructions: 550000004 cycles: 235497117 heartbeat IPC: 0.9848 cumulative IPC: 2.242 (Simulation time: 05 hr 23 min 24 sec)
Heartbeat CPU 0 instructions: 560000004 cycles: 239173266 heartbeat IPC: 2.72 cumulative IPC: 2.25 (Simulation time: 05 hr 28 min 48 sec)
Heartbeat CPU 0 instructions: 570000002 cycles: 241999096 heartbeat IPC: 3.539 cumulative IPC: 2.266 (Simulation time: 05 hr 33 min 45 sec)
Heartbeat CPU 0 instructions: 580000000 cycles: 244954369 heartbeat IPC: 3.384 cumulative IPC: 2.28 (Simulation time: 05 hr 38 min 52 sec)
Heartbeat CPU 0 instructions: 590000001 cycles: 247899544 heartbeat IPC: 3.395 cumulative IPC: 2.294 (Simulation time: 05 hr 43 min 53 sec)
Heartbeat CPU 0 instructions: 600000003 cycles: 250606387 heartbeat IPC: 3.694 cumulative IPC: 2.31 (Simulation time: 05 hr 48 min 58 sec)
Heartbeat CPU 0 instructions: 610000001 cycles: 253483581 heartbeat IPC: 3.476 cumulative IPC: 2.324 (Simulation time: 05 hr 53 min 53 sec)
Heartbeat CPU 0 instructions: 620000004 cycles: 256452046 heartbeat IPC: 3.369 cumulative IPC: 2.337 (Simulation time: 05 hr 58 min 54 sec)
Heartbeat CPU 0 instructions: 630000002 cycles: 259269381 heartbeat IPC: 3.549 cumulative IPC: 2.35 (Simulation time: 06 hr 04 min 03 sec)
Heartbeat CPU 0 instructions: 640000004 cycles: 262321144 heartbeat IPC: 3.277 cumulative IPC: 2.362 (Simulation time: 06 hr 09 min 14 sec)
Heartbeat CPU 0 instructions: 650000001 cycles: 265036324 heartbeat IPC: 3.683 cumulative IPC: 2.376 (Simulation time: 06 hr 14 min 04 sec)
Simulation finished CPU 0 instructions: 600000001 cycles: 252536262 cumulative IPC: 2.376 (Simulation time: 06 hr 14 min 04 sec)
Simulation complete CPU 0 instructions: 600000001 cycles: 252536262 cumulative IPC: 2.376 (Simulation time: 06 hr 14 min 04 sec)

ChampSim completed all CPUs

=== Simulation ===
CPU 0 runs traces/400.perlbench-50B.champsimtrace.xz
Region of Interest Statistics

CPU 0 cumulative IPC: 2.376 instructions: 600000001 cycles: 252536262
CPU 0 Branch Prediction Accuracy: 99.01% MPKI: 2.04 Average ROB Occupancy at Mispredict: 94.01
Branch type MPKI
BRANCH_DIRECT_JUMP: 0.0176
BRANCH_INDIRECT: 0.38
BRANCH_CONDITIONAL: 1.19
BRANCH_DIRECT_CALL: 0.0067
BRANCH_INDIRECT_CALL: 0.431
BRANCH_RETURN: 0.0161

LLC TOTAL        ACCESS:     837186 HIT:     307794 MISS:     529392
LLC LOAD         ACCESS:     376561 HIT:     158552 MISS:     218009
LLC RFO          ACCESS:      32709 HIT:      11454 MISS:      21255
LLC PREFETCH     ACCESS:     326042 HIT:      51673 MISS:     274369
LLC WRITE        ACCESS:      83558 HIT:      80658 MISS:       2900
LLC TRANSLATION  ACCESS:      18316 HIT:       5457 MISS:      12859
LLC PREFETCH REQUESTED:     326205 ISSUED:     326042 USEFUL:      94034 USELESS:     142142
LLC AVERAGE MISS LATENCY: 821.4 cycles
cpu0_DTLB TOTAL        ACCESS:  133165368 HIT:  131815735 MISS:    1349633
cpu0_DTLB LOAD         ACCESS:  133165368 HIT:  131815735 MISS:    1349633
cpu0_DTLB RFO          ACCESS:          0 HIT:          0 MISS:          0
cpu0_DTLB PREFETCH     ACCESS:          0 HIT:          0 MISS:          0
cpu0_DTLB WRITE        ACCESS:          0 HIT:          0 MISS:          0
cpu0_DTLB TRANSLATION  ACCESS:          0 HIT:          0 MISS:          0
cpu0_DTLB PREFETCH REQUESTED:          0 ISSUED:          0 USEFUL:          0 USELESS:          0
cpu0_DTLB AVERAGE MISS LATENCY: 13.46 cycles
cpu0_ITLB TOTAL        ACCESS:    8994036 HIT:    8783694 MISS:     210342
cpu0_ITLB LOAD         ACCESS:    8994036 HIT:    8783694 MISS:     210342
cpu0_ITLB RFO          ACCESS:          0 HIT:          0 MISS:          0
cpu0_ITLB PREFETCH     ACCESS:          0 HIT:          0 MISS:          0
cpu0_ITLB WRITE        ACCESS:          0 HIT:          0 MISS:          0
cpu0_ITLB TRANSLATION  ACCESS:          0 HIT:          0 MISS:          0
cpu0_ITLB PREFETCH REQUESTED:          0 ISSUED:          0 USEFUL:          0 USELESS:          0
cpu0_ITLB AVERAGE MISS LATENCY: 3.447 cycles
cpu0_L1D TOTAL        ACCESS:  178244542 HIT:  175321176 MISS:    2923366
cpu0_L1D LOAD         ACCESS:   92725116 HIT:   90329966 MISS:    2395150
cpu0_L1D RFO          ACCESS:          0 HIT:          0 MISS:          0
cpu0_L1D PREFETCH     ACCESS:          0 HIT:          0 MISS:          0
cpu0_L1D WRITE        ACCESS:   85490899 HIT:   84989198 MISS:     501701
cpu0_L1D TRANSLATION  ACCESS:      28527 HIT:       2012 MISS:      26515
cpu0_L1D PREFETCH REQUESTED:          0 ISSUED:          0 USEFUL:          0 USELESS:          0
cpu0_L1D AVERAGE MISS LATENCY: 68.52 cycles
cpu0_L1I TOTAL        ACCESS:   10513097 HIT:    8612213 MISS:    1900884
cpu0_L1I LOAD         ACCESS:   10513097 HIT:    8612213 MISS:    1900884
cpu0_L1I RFO          ACCESS:          0 HIT:          0 MISS:          0
cpu0_L1I PREFETCH     ACCESS:          0 HIT:          0 MISS:          0
cpu0_L1I WRITE        ACCESS:          0 HIT:          0 MISS:          0
cpu0_L1I TRANSLATION  ACCESS:          0 HIT:          0 MISS:          0
cpu0_L1I PREFETCH REQUESTED:          0 ISSUED:          0 USEFUL:          0 USELESS:          0
cpu0_L1I AVERAGE MISS LATENCY: 11.79 cycles
cpu0_L2C TOTAL        ACCESS:    3236029 HIT:    2807546 MISS:     428483
cpu0_L2C LOAD         ACCESS:    2709211 HIT:    2332650 MISS:     376561
cpu0_L2C RFO          ACCESS:     135551 HIT:     102842 MISS:      32709
cpu0_L2C PREFETCH     ACCESS:          0 HIT:          0 MISS:          0
cpu0_L2C WRITE        ACCESS:     364838 HIT:     363941 MISS:        897
cpu0_L2C TRANSLATION  ACCESS:      26429 HIT:       8113 MISS:      18316
cpu0_L2C PREFETCH REQUESTED:          0 ISSUED:          0 USEFUL:          0 USELESS:          0
cpu0_L2C AVERAGE MISS LATENCY: 483.5 cycles
cpu0_STLB TOTAL        ACCESS:    1009939 HIT:     983249 MISS:      26690
cpu0_STLB LOAD         ACCESS:    1009939 HIT:     983249 MISS:      26690
cpu0_STLB RFO          ACCESS:          0 HIT:          0 MISS:          0
cpu0_STLB PREFETCH     ACCESS:          0 HIT:          0 MISS:          0
cpu0_STLB WRITE        ACCESS:          0 HIT:          0 MISS:          0
cpu0_STLB TRANSLATION  ACCESS:          0 HIT:          0 MISS:          0
cpu0_STLB PREFETCH REQUESTED:          0 ISSUED:          0 USEFUL:          0 USELESS:          0
cpu0_STLB AVERAGE MISS LATENCY: 487.6 cycles

DRAM Statistics

Channel 0 RQ ROW_BUFFER_HIT:     191425
  ROW_BUFFER_MISS:     315738
 AVG DBUS CONGESTED CYCLE: 3.918
WQ ROW_BUFFER_HIT: Channel 0 
  ROW_BUFFER_MISS:       4426
  FULL:      51235
