WARNING: physical memory size is smaller than virtual memory size.

*** ChampSim Multicore Out-of-Order Simulator ***
Warmup Instructions: 50000000
Simulation Instructions: 600000000
Number of CPUs: 1
Page size: 4096

Off-chip DRAM Size: 4 GiB Channels: 1 Width: 64-bit Data Race: 3200 MT/s
Heartbeat CPU 0 instructions: 10000001 cycles: 2500319 heartbeat IPC: 3.999 cumulative IPC: 3.999 (Simulation time: 00 hr 03 min 50 sec)
Heartbeat CPU 0 instructions: 20000002 cycles: 5037098 heartbeat IPC: 3.942 cumulative IPC: 3.971 (Simulation time: 00 hr 07 min 35 sec)
Heartbeat CPU 0 instructions: 30000002 cycles: 7537098 heartbeat IPC: 4 cumulative IPC: 3.98 (Simulation time: 00 hr 10 min 59 sec)
Heartbeat CPU 0 instructions: 40000002 cycles: 10037098 heartbeat IPC: 4 cumulative IPC: 3.985 (Simulation time: 00 hr 14 min 34 sec)
Heartbeat CPU 0 instructions: 50000002 cycles: 12537098 heartbeat IPC: 4 cumulative IPC: 3.988 (Simulation time: 00 hr 18 min 04 sec)
Warmup finished CPU 0 instructions: 50000002 cycles: 12537099 cumulative IPC: 3.988 (Simulation time: 00 hr 18 min 04 sec)
Warmup complete CPU 0 instructions: 50000002 cycles: 12537099 cumulative IPC: 3.988 (Simulation time: 00 hr 18 min 04 sec)
Heartbeat CPU 0 instructions: 60000000 cycles: 17143391 heartbeat IPC: 2.171 cumulative IPC: 2.171 (Simulation time: 00 hr 23 min 04 sec)
Heartbeat CPU 0 instructions: 70000004 cycles: 21411064 heartbeat IPC: 2.343 cumulative IPC: 2.254 (Simulation time: 00 hr 28 min 09 sec)
Heartbeat CPU 0 instructions: 80000001 cycles: 25992054 heartbeat IPC: 2.183 cumulative IPC: 2.23 (Simulation time: 00 hr 33 min 17 sec)
Heartbeat CPU 0 instructions: 90000001 cycles: 30102353 heartbeat IPC: 2.433 cumulative IPC: 2.277 (Simulation time: 00 hr 38 min 10 sec)
Heartbeat CPU 0 instructions: 100000000 cycles: 34146452 heartbeat IPC: 2.473 cumulative IPC: 2.314 (Simulation time: 00 hr 43 min 11 sec)
Heartbeat CPU 0 instructions: 110000000 cycles: 38371646 heartbeat IPC: 2.367 cumulative IPC: 2.322 (Simulation time: 00 hr 48 min 11 sec)
Heartbeat CPU 0 instructions: 120000001 cycles: 42376628 heartbeat IPC: 2.497 cumulative IPC: 2.346 (Simulation time: 00 hr 52 min 56 sec)
Heartbeat CPU 0 instructions: 130000001 cycles: 46103119 heartbeat IPC: 2.683 cumulative IPC: 2.383 (Simulation time: 00 hr 57 min 37 sec)
Heartbeat CPU 0 instructions: 140000001 cycles: 50263688 heartbeat IPC: 2.404 cumulative IPC: 2.386 (Simulation time: 01 hr 02 min 38 sec)
Heartbeat CPU 0 instructions: 150000001 cycles: 54456733 heartbeat IPC: 2.385 cumulative IPC: 2.386 (Simulation time: 01 hr 07 min 24 sec)
Heartbeat CPU 0 instructions: 160000004 cycles: 58874780 heartbeat IPC: 2.263 cumulative IPC: 2.374 (Simulation time: 01 hr 12 min 25 sec)
Heartbeat CPU 0 instructions: 170000000 cycles: 68457135 heartbeat IPC: 1.044 cumulative IPC: 2.146 (Simulation time: 01 hr 20 min 47 sec)
Heartbeat CPU 0 instructions: 180000004 cycles: 79042087 heartbeat IPC: 0.9447 cumulative IPC: 1.955 (Simulation time: 01 hr 29 min 55 sec)
Heartbeat CPU 0 instructions: 190000001 cycles: 89342042 heartbeat IPC: 0.9709 cumulative IPC: 1.823 (Simulation time: 01 hr 38 min 51 sec)
Heartbeat CPU 0 instructions: 200000004 cycles: 93130868 heartbeat IPC: 2.639 cumulative IPC: 1.861 (Simulation time: 01 hr 43 min 29 sec)
Heartbeat CPU 0 instructions: 210000001 cycles: 97053646 heartbeat IPC: 2.549 cumulative IPC: 1.893 (Simulation time: 01 hr 48 min 11 sec)
Heartbeat CPU 0 instructions: 220000000 cycles: 101012450 heartbeat IPC: 2.526 cumulative IPC: 1.921 (Simulation time: 01 hr 52 min 53 sec)
Heartbeat CPU 0 instructions: 230000002 cycles: 105687209 heartbeat IPC: 2.139 cumulative IPC: 1.932 (Simulation time: 01 hr 57 min 59 sec)
Heartbeat CPU 0 instructions: 240000000 cycles: 109889647 heartbeat IPC: 2.38 cumulative IPC: 1.952 (Simulation time: 02 hr 02 min 50 sec)
Heartbeat CPU 0 instructions: 250000000 cycles: 114208020 heartbeat IPC: 2.316 cumulative IPC: 1.967 (Simulation time: 02 hr 07 min 43 sec)
Heartbeat CPU 0 instructions: 260000000 cycles: 118380128 heartbeat IPC: 2.397 cumulative IPC: 1.984 (Simulation time: 02 hr 12 min 31 sec)
Heartbeat CPU 0 instructions: 270000002 cycles: 122230779 heartbeat IPC: 2.597 cumulative IPC: 2.006 (Simulation time: 02 hr 17 min 12 sec)
Heartbeat CPU 0 instructions: 280000002 cycles: 126389556 heartbeat IPC: 2.405 cumulative IPC: 2.02 (Simulation time: 02 hr 21 min 54 sec)
Heartbeat CPU 0 instructions: 290000001 cycles: 130289335 heartbeat IPC: 2.564 cumulative IPC: 2.038 (Simulation time: 02 hr 26 min 38 sec)
Heartbeat CPU 0 instructions: 300000003 cycles: 134111468 heartbeat IPC: 2.616 cumulative IPC: 2.056 (Simulation time: 02 hr 31 min 20 sec)
Heartbeat CPU 0 instructions: 310000001 cycles: 138249839 heartbeat IPC: 2.416 cumulative IPC: 2.068 (Simulation time: 02 hr 36 min 05 sec)
Heartbeat CPU 0 instructions: 320000003 cycles: 142333486 heartbeat IPC: 2.449 cumulative IPC: 2.08 (Simulation time: 02 hr 40 min 58 sec)
Heartbeat CPU 0 instructions: 330000003 cycles: 146741203 heartbeat IPC: 2.269 cumulative IPC: 2.086 (Simulation time: 02 hr 45 min 58 sec)
Heartbeat CPU 0 instructions: 340000000 cycles: 156592074 heartbeat IPC: 1.015 cumulative IPC: 2.013 (Simulation time: 02 hr 54 min 35 sec)
Heartbeat CPU 0 instructions: 350000000 cycles: 167544548 heartbeat IPC: 0.913 cumulative IPC: 1.935 (Simulation time: 03 hr 04 min 01 sec)
Heartbeat CPU 0 instructions: 360000004 cycles: 177842839 heartbeat IPC: 0.971 cumulative IPC: 1.875 (Simulation time: 03 hr 12 min 59 sec)
Heartbeat CPU 0 instructions: 370000000 cycles: 181282456 heartbeat IPC: 2.907 cumulative IPC: 1.896 (Simulation time: 03 hr 17 min 26 sec)
Heartbeat CPU 0 instructions: 380000001 cycles: 184713641 heartbeat IPC: 2.914 cumulative IPC: 1.917 (Simulation time: 03 hr 21 min 55 sec)
Heartbeat CPU 0 instructions: 390000004 cycles: 188458538 heartbeat IPC: 2.67 cumulative IPC: 1.933 (Simulation time: 03 hr 26 min 32 sec)
Heartbeat CPU 0 instructions: 400000004 cycles: 192267245 heartbeat IPC: 2.626 cumulative IPC: 1.947 (Simulation time: 03 hr 31 min 12 sec)
Heartbeat CPU 0 instructions: 410000001 cycles: 195929066 heartbeat IPC: 2.731 cumulative IPC: 1.963 (Simulation time: 03 hr 35 min 43 sec)
Heartbeat CPU 0 instructions: 420000003 cycles: 200039737 heartbeat IPC: 2.433 cumulative IPC: 1.973 (Simulation time: 03 hr 40 min 33 sec)
Heartbeat CPU 0 instructions: 430000001 cycles: 203702063 heartbeat IPC: 2.731 cumulative IPC: 1.988 (Simulation time: 03 hr 45 min 08 sec)
Heartbeat CPU 0 instructions: 440000004 cycles: 207784809 heartbeat IPC: 2.449 cumulative IPC: 1.997 (Simulation time: 03 hr 49 min 53 sec)
Heartbeat CPU 0 instructions: 450000002 cycles: 211510559 heartbeat IPC: 2.684 cumulative IPC: 2.01 (Simulation time: 03 hr 54 min 30 sec)
Heartbeat CPU 0 instructions: 460000000 cycles: 215170165 heartbeat IPC: 2.733 cumulative IPC: 2.023 (Simulation time: 03 hr 59 min 02 sec)
Heartbeat CPU 0 instructions: 470000000 cycles: 218628038 heartbeat IPC: 2.892 cumulative IPC: 2.038 (Simulation time: 04 hr 03 min 27 sec)
Heartbeat CPU 0 instructions: 480000003 cycles: 222454015 heartbeat IPC: 2.614 cumulative IPC: 2.048 (Simulation time: 04 hr 08 min 04 sec)
Heartbeat CPU 0 instructions: 490000000 cycles: 226076910 heartbeat IPC: 2.76 cumulative IPC: 2.061 (Simulation time: 04 hr 12 min 35 sec)
Heartbeat CPU 0 instructions: 500000000 cycles: 229776351 heartbeat IPC: 2.703 cumulative IPC: 2.071 (Simulation time: 04 hr 17 min 08 sec)
Heartbeat CPU 0 instructions: 510000003 cycles: 233424737 heartbeat IPC: 2.741 cumulative IPC: 2.083 (Simulation time: 04 hr 21 min 44 sec)
Heartbeat CPU 0 instructions: 520000001 cycles: 236828721 heartbeat IPC: 2.938 cumulative IPC: 2.095 (Simulation time: 04 hr 26 min 12 sec)
Heartbeat CPU 0 instructions: 530000002 cycles: 240509424 heartbeat IPC: 2.717 cumulative IPC: 2.106 (Simulation time: 04 hr 30 min 43 sec)
Heartbeat CPU 0 instructions: 540000000 cycles: 244037264 heartbeat IPC: 2.835 cumulative IPC: 2.117 (Simulation time: 04 hr 35 min 11 sec)
Heartbeat CPU 0 instructions: 550000001 cycles: 247734886 heartbeat IPC: 2.704 cumulative IPC: 2.126 (Simulation time: 04 hr 39 min 49 sec)
Heartbeat CPU 0 instructions: 560000000 cycles: 251707223 heartbeat IPC: 2.517 cumulative IPC: 2.132 (Simulation time: 04 hr 44 min 38 sec)
Heartbeat CPU 0 instructions: 570000004 cycles: 258150518 heartbeat IPC: 1.552 cumulative IPC: 2.117 (Simulation time: 04 hr 51 min 01 sec)
Heartbeat CPU 0 instructions: 580000003 cycles: 269474577 heartbeat IPC: 0.8831 cumulative IPC: 2.063 (Simulation time: 05 hr 00 min 40 sec)
Heartbeat CPU 0 instructions: 590000002 cycles: 282617798 heartbeat IPC: 0.7608 cumulative IPC: 1.999 (Simulation time: 05 hr 11 min 29 sec)
Heartbeat CPU 0 instructions: 600000000 cycles: 286417742 heartbeat IPC: 2.632 cumulative IPC: 2.008 (Simulation time: 05 hr 16 min 06 sec)
Heartbeat CPU 0 instructions: 610000000 cycles: 290280843 heartbeat IPC: 2.589 cumulative IPC: 2.016 (Simulation time: 05 hr 20 min 44 sec)
Heartbeat CPU 0 instructions: 620000001 cycles: 293718354 heartbeat IPC: 2.909 cumulative IPC: 2.027 (Simulation time: 05 hr 25 min 13 sec)
Heartbeat CPU 0 instructions: 630000002 cycles: 297999521 heartbeat IPC: 2.336 cumulative IPC: 2.032 (Simulation time: 05 hr 30 min 09 sec)
Heartbeat CPU 0 instructions: 640000001 cycles: 301897662 heartbeat IPC: 2.565 cumulative IPC: 2.039 (Simulation time: 05 hr 34 min 51 sec)
Heartbeat CPU 0 instructions: 650000000 cycles: 305653845 heartbeat IPC: 2.662 cumulative IPC: 2.047 (Simulation time: 05 hr 39 min 29 sec)
Simulation finished CPU 0 instructions: 600000001 cycles: 293116748 cumulative IPC: 2.047 (Simulation time: 05 hr 39 min 29 sec)
Simulation complete CPU 0 instructions: 600000001 cycles: 293116748 cumulative IPC: 2.047 (Simulation time: 05 hr 39 min 29 sec)

ChampSim completed all CPUs

=== Simulation ===
CPU 0 runs traces/400.perlbench-41B.champsimtrace.xz
Region of Interest Statistics

CPU 0 cumulative IPC: 2.047 instructions: 600000001 cycles: 293116748
CPU 0 Branch Prediction Accuracy: 96.56% MPKI: 7.112 Average ROB Occupancy at Mispredict: 47.1
Branch type MPKI
BRANCH_DIRECT_JUMP: 0.0123
BRANCH_INDIRECT: 0.323
BRANCH_CONDITIONAL: 6.56
BRANCH_DIRECT_CALL: 0.0043
BRANCH_INDIRECT_CALL: 0.2
BRANCH_RETURN: 0.00828

LLC TOTAL        ACCESS:     721691 HIT:     288014 MISS:     433677
LLC LOAD         ACCESS:     308494 HIT:     113976 MISS:     194518
LLC RFO          ACCESS:      25182 HIT:       8276 MISS:      16906
LLC PREFETCH     ACCESS:     308494 HIT:      99136 MISS:     209358
LLC WRITE        ACCESS:      63866 HIT:      62111 MISS:       1755
LLC TRANSLATION  ACCESS:      15655 HIT:       4515 MISS:      11140
LLC PREFETCH REQUESTED:     308494 ISSUED:     308494 USEFUL:      81027 USELESS:      81116
LLC AVERAGE MISS LATENCY: 596.4 cycles
cpu0_DTLB TOTAL        ACCESS:  141891753 HIT:  141206380 MISS:     685373
cpu0_DTLB LOAD         ACCESS:  141891753 HIT:  141206380 MISS:     685373
cpu0_DTLB RFO          ACCESS:          0 HIT:          0 MISS:          0
cpu0_DTLB PREFETCH     ACCESS:          0 HIT:          0 MISS:          0
cpu0_DTLB WRITE        ACCESS:          0 HIT:          0 MISS:          0
cpu0_DTLB TRANSLATION  ACCESS:          0 HIT:          0 MISS:          0
cpu0_DTLB PREFETCH REQUESTED:          0 ISSUED:          0 USEFUL:          0 USELESS:          0
cpu0_DTLB AVERAGE MISS LATENCY: 17.12 cycles
cpu0_ITLB TOTAL        ACCESS:    4857372 HIT:    4804074 MISS:      53298
cpu0_ITLB LOAD         ACCESS:    4857372 HIT:    4804074 MISS:      53298
cpu0_ITLB RFO          ACCESS:          0 HIT:          0 MISS:          0
cpu0_ITLB PREFETCH     ACCESS:          0 HIT:          0 MISS:          0
cpu0_ITLB WRITE        ACCESS:          0 HIT:          0 MISS:          0
cpu0_ITLB TRANSLATION  ACCESS:          0 HIT:          0 MISS:          0
cpu0_ITLB PREFETCH REQUESTED:          0 ISSUED:          0 USEFUL:          0 USELESS:          0
cpu0_ITLB AVERAGE MISS LATENCY: 8.905 cycles
cpu0_L1D TOTAL        ACCESS:  188573773 HIT:  187230738 MISS:    1343035
cpu0_L1D LOAD         ACCESS:  105206911 HIT:  104174069 MISS:    1032842
cpu0_L1D RFO          ACCESS:          0 HIT:          0 MISS:          0
cpu0_L1D PREFETCH     ACCESS:          0 HIT:          0 MISS:          0
cpu0_L1D WRITE        ACCESS:   83342399 HIT:   83055061 MISS:     287338
cpu0_L1D TRANSLATION  ACCESS:      24463 HIT:       1608 MISS:      22855
cpu0_L1D PREFETCH REQUESTED:          0 ISSUED:          0 USEFUL:          0 USELESS:          0
cpu0_L1D AVERAGE MISS LATENCY: 110.6 cycles
cpu0_L1I TOTAL        ACCESS:    5595076 HIT:    4851303 MISS:     743773
cpu0_L1I LOAD         ACCESS:    5595076 HIT:    4851303 MISS:     743773
cpu0_L1I RFO          ACCESS:          0 HIT:          0 MISS:          0
cpu0_L1I PREFETCH     ACCESS:          0 HIT:          0 MISS:          0
cpu0_L1I WRITE        ACCESS:          0 HIT:          0 MISS:          0
cpu0_L1I TRANSLATION  ACCESS:          0 HIT:          0 MISS:          0
cpu0_L1I PREFETCH REQUESTED:          0 ISSUED:          0 USEFUL:          0 USELESS:          0
cpu0_L1I AVERAGE MISS LATENCY: 13.87 cycles
cpu0_L2C TOTAL        ACCESS:    1380907 HIT:    1030693 MISS:     350214
cpu0_L2C LOAD         ACCESS:    1124756 HIT:     816262 MISS:     308494
cpu0_L2C RFO          ACCESS:      63797 HIT:      38615 MISS:      25182
cpu0_L2C PREFETCH     ACCESS:          0 HIT:          0 MISS:          0
cpu0_L2C WRITE        ACCESS:     169568 HIT:     168685 MISS:        883
cpu0_L2C TRANSLATION  ACCESS:      22786 HIT:       7131 MISS:      15655
cpu0_L2C PREFETCH REQUESTED:          0 ISSUED:          0 USEFUL:          0 USELESS:          0
cpu0_L2C AVERAGE MISS LATENCY: 434.1 cycles
cpu0_STLB TOTAL        ACCESS:     507255 HIT:     484462 MISS:      22793
cpu0_STLB LOAD         ACCESS:     507255 HIT:     484462 MISS:      22793
cpu0_STLB RFO          ACCESS:          0 HIT:          0 MISS:          0
cpu0_STLB PREFETCH     ACCESS:          0 HIT:          0 MISS:          0
cpu0_STLB WRITE        ACCESS:          0 HIT:          0 MISS:          0
cpu0_STLB TRANSLATION  ACCESS:          0 HIT:          0 MISS:          0
cpu0_STLB PREFETCH REQUESTED:          0 ISSUED:          0 USEFUL:          0 USELESS:          0
cpu0_STLB AVERAGE MISS LATENCY: 399.4 cycles

DRAM Statistics

Channel 0 RQ ROW_BUFFER_HIT:      64363
  ROW_BUFFER_MISS:     303620
 AVG DBUS CONGESTED CYCLE: 3.884
WQ ROW_BUFFER_HIT: Channel 0 
  ROW_BUFFER_MISS:       5189
  FULL:      43316
