WARNING: physical memory size is smaller than virtual memory size.

*** ChampSim Multicore Out-of-Order Simulator ***
Warmup Instructions: 50000000
Simulation Instructions: 600000000
Number of CPUs: 1
Page size: 4096

CPU 0 Tage branch predictor
Off-chip DRAM Size: 4 GiB Channels: 1 Width: 64-bit Data Race: 3200 MT/s
Heartbeat CPU 0 instructions: 10000001 cycles: 2500319 heartbeat IPC: 3.999 cumulative IPC: 3.999 (Simulation time: 00 hr 04 min 48 sec)
Heartbeat CPU 0 instructions: 20000002 cycles: 5037102 heartbeat IPC: 3.942 cumulative IPC: 3.971 (Simulation time: 00 hr 09 min 39 sec)
Heartbeat CPU 0 instructions: 30000002 cycles: 7537102 heartbeat IPC: 4 cumulative IPC: 3.98 (Simulation time: 00 hr 14 min 08 sec)
Heartbeat CPU 0 instructions: 40000002 cycles: 10037102 heartbeat IPC: 4 cumulative IPC: 3.985 (Simulation time: 00 hr 18 min 54 sec)
Heartbeat CPU 0 instructions: 50000002 cycles: 12537102 heartbeat IPC: 4 cumulative IPC: 3.988 (Simulation time: 00 hr 23 min 29 sec)
Warmup finished CPU 0 instructions: 50000002 cycles: 12537103 cumulative IPC: 3.988 (Simulation time: 00 hr 23 min 29 sec)
Warmup complete CPU 0 instructions: 50000002 cycles: 12537103 cumulative IPC: 3.988 (Simulation time: 00 hr 23 min 29 sec)
Heartbeat CPU 0 instructions: 60000001 cycles: 15554764 heartbeat IPC: 3.314 cumulative IPC: 3.314 (Simulation time: 00 hr 28 min 32 sec)
Heartbeat CPU 0 instructions: 70000004 cycles: 18650801 heartbeat IPC: 3.23 cumulative IPC: 3.271 (Simulation time: 00 hr 33 min 48 sec)
Heartbeat CPU 0 instructions: 80000001 cycles: 21717130 heartbeat IPC: 3.261 cumulative IPC: 3.268 (Simulation time: 00 hr 39 min 05 sec)
Heartbeat CPU 0 instructions: 90000001 cycles: 24678028 heartbeat IPC: 3.377 cumulative IPC: 3.295 (Simulation time: 00 hr 44 min 05 sec)
Heartbeat CPU 0 instructions: 100000000 cycles: 27612982 heartbeat IPC: 3.407 cumulative IPC: 3.317 (Simulation time: 00 hr 49 min 03 sec)
Heartbeat CPU 0 instructions: 110000000 cycles: 30570446 heartbeat IPC: 3.381 cumulative IPC: 3.327 (Simulation time: 00 hr 54 min 16 sec)
Heartbeat CPU 0 instructions: 120000001 cycles: 33565712 heartbeat IPC: 3.339 cumulative IPC: 3.329 (Simulation time: 00 hr 59 min 16 sec)
Heartbeat CPU 0 instructions: 130000001 cycles: 36443389 heartbeat IPC: 3.475 cumulative IPC: 3.346 (Simulation time: 01 hr 04 min 13 sec)
Heartbeat CPU 0 instructions: 140000001 cycles: 39524162 heartbeat IPC: 3.246 cumulative IPC: 3.335 (Simulation time: 01 hr 09 min 15 sec)
Heartbeat CPU 0 instructions: 150000001 cycles: 42563633 heartbeat IPC: 3.29 cumulative IPC: 3.33 (Simulation time: 01 hr 14 min 20 sec)
Heartbeat CPU 0 instructions: 160000004 cycles: 45618057 heartbeat IPC: 3.274 cumulative IPC: 3.325 (Simulation time: 01 hr 19 min 22 sec)
Heartbeat CPU 0 instructions: 170000000 cycles: 53343374 heartbeat IPC: 1.294 cumulative IPC: 2.941 (Simulation time: 01 hr 27 min 36 sec)
Heartbeat CPU 0 instructions: 180000004 cycles: 61728455 heartbeat IPC: 1.193 cumulative IPC: 2.643 (Simulation time: 01 hr 36 min 27 sec)
Heartbeat CPU 0 instructions: 190000001 cycles: 70286929 heartbeat IPC: 1.168 cumulative IPC: 2.424 (Simulation time: 01 hr 45 min 21 sec)
Heartbeat CPU 0 instructions: 200000004 cycles: 73283863 heartbeat IPC: 3.337 cumulative IPC: 2.469 (Simulation time: 01 hr 50 min 24 sec)
Heartbeat CPU 0 instructions: 210000001 cycles: 76273318 heartbeat IPC: 3.345 cumulative IPC: 2.51 (Simulation time: 01 hr 55 min 25 sec)
Heartbeat CPU 0 instructions: 220000000 cycles: 79178663 heartbeat IPC: 3.442 cumulative IPC: 2.551 (Simulation time: 02 hr 00 min 28 sec)
Heartbeat CPU 0 instructions: 230000002 cycles: 82242372 heartbeat IPC: 3.264 cumulative IPC: 2.582 (Simulation time: 02 hr 05 min 32 sec)
Heartbeat CPU 0 instructions: 240000003 cycles: 85306344 heartbeat IPC: 3.264 cumulative IPC: 2.611 (Simulation time: 02 hr 10 min 38 sec)
Heartbeat CPU 0 instructions: 250000000 cycles: 88354305 heartbeat IPC: 3.281 cumulative IPC: 2.638 (Simulation time: 02 hr 15 min 40 sec)
Heartbeat CPU 0 instructions: 260000002 cycles: 91339647 heartbeat IPC: 3.35 cumulative IPC: 2.665 (Simulation time: 02 hr 20 min 42 sec)
Heartbeat CPU 0 instructions: 270000002 cycles: 94271086 heartbeat IPC: 3.411 cumulative IPC: 2.692 (Simulation time: 02 hr 25 min 41 sec)
Heartbeat CPU 0 instructions: 280000002 cycles: 97172303 heartbeat IPC: 3.447 cumulative IPC: 2.718 (Simulation time: 02 hr 30 min 35 sec)
Heartbeat CPU 0 instructions: 290000002 cycles: 100150339 heartbeat IPC: 3.358 cumulative IPC: 2.739 (Simulation time: 02 hr 35 min 34 sec)
Heartbeat CPU 0 instructions: 300000003 cycles: 103079032 heartbeat IPC: 3.414 cumulative IPC: 2.761 (Simulation time: 02 hr 40 min 35 sec)
Heartbeat CPU 0 instructions: 310000001 cycles: 106160405 heartbeat IPC: 3.245 cumulative IPC: 2.777 (Simulation time: 02 hr 45 min 41 sec)
Heartbeat CPU 0 instructions: 320000003 cycles: 109194505 heartbeat IPC: 3.296 cumulative IPC: 2.793 (Simulation time: 02 hr 50 min 44 sec)
Heartbeat CPU 0 instructions: 330000003 cycles: 112221411 heartbeat IPC: 3.304 cumulative IPC: 2.809 (Simulation time: 02 hr 55 min 48 sec)
Heartbeat CPU 0 instructions: 340000000 cycles: 120243813 heartbeat IPC: 1.247 cumulative IPC: 2.692 (Simulation time: 03 hr 04 min 16 sec)
Heartbeat CPU 0 instructions: 350000000 cycles: 128893271 heartbeat IPC: 1.156 cumulative IPC: 2.578 (Simulation time: 03 hr 13 min 15 sec)
Heartbeat CPU 0 instructions: 360000004 cycles: 137502816 heartbeat IPC: 1.162 cumulative IPC: 2.481 (Simulation time: 03 hr 22 min 06 sec)
Heartbeat CPU 0 instructions: 370000000 cycles: 140484660 heartbeat IPC: 3.354 cumulative IPC: 2.501 (Simulation time: 03 hr 27 min 02 sec)
Heartbeat CPU 0 instructions: 380000003 cycles: 143436458 heartbeat IPC: 3.388 cumulative IPC: 2.521 (Simulation time: 03 hr 32 min 01 sec)
Heartbeat CPU 0 instructions: 390000002 cycles: 146432720 heartbeat IPC: 3.337 cumulative IPC: 2.539 (Simulation time: 03 hr 37 min 04 sec)
Heartbeat CPU 0 instructions: 400000004 cycles: 149340596 heartbeat IPC: 3.439 cumulative IPC: 2.558 (Simulation time: 03 hr 41 min 58 sec)
Heartbeat CPU 0 instructions: 410000002 cycles: 152308464 heartbeat IPC: 3.369 cumulative IPC: 2.576 (Simulation time: 03 hr 46 min 51 sec)
Heartbeat CPU 0 instructions: 420000003 cycles: 155521116 heartbeat IPC: 3.113 cumulative IPC: 2.588 (Simulation time: 03 hr 52 min 01 sec)
Heartbeat CPU 0 instructions: 430000001 cycles: 158549967 heartbeat IPC: 3.302 cumulative IPC: 2.603 (Simulation time: 03 hr 57 min 05 sec)
Heartbeat CPU 0 instructions: 440000004 cycles: 161703490 heartbeat IPC: 3.171 cumulative IPC: 2.615 (Simulation time: 04 hr 02 min 14 sec)
Heartbeat CPU 0 instructions: 450000002 cycles: 164639262 heartbeat IPC: 3.406 cumulative IPC: 2.63 (Simulation time: 04 hr 07 min 10 sec)
Heartbeat CPU 0 instructions: 460000000 cycles: 167578717 heartbeat IPC: 3.402 cumulative IPC: 2.644 (Simulation time: 04 hr 12 min 08 sec)
Heartbeat CPU 0 instructions: 470000001 cycles: 170451835 heartbeat IPC: 3.481 cumulative IPC: 2.66 (Simulation time: 04 hr 17 min 05 sec)
Heartbeat CPU 0 instructions: 480000003 cycles: 173521081 heartbeat IPC: 3.258 cumulative IPC: 2.671 (Simulation time: 04 hr 22 min 07 sec)
Heartbeat CPU 0 instructions: 490000004 cycles: 176359935 heartbeat IPC: 3.523 cumulative IPC: 2.686 (Simulation time: 04 hr 27 min 00 sec)
Heartbeat CPU 0 instructions: 500000004 cycles: 179350289 heartbeat IPC: 3.344 cumulative IPC: 2.698 (Simulation time: 04 hr 31 min 57 sec)
Heartbeat CPU 0 instructions: 510000003 cycles: 182384405 heartbeat IPC: 3.296 cumulative IPC: 2.708 (Simulation time: 04 hr 37 min 04 sec)
Heartbeat CPU 0 instructions: 520000001 cycles: 185284795 heartbeat IPC: 3.448 cumulative IPC: 2.721 (Simulation time: 04 hr 42 min 05 sec)
Heartbeat CPU 0 instructions: 530000001 cycles: 188315528 heartbeat IPC: 3.3 cumulative IPC: 2.731 (Simulation time: 04 hr 47 min 06 sec)
Heartbeat CPU 0 instructions: 540000000 cycles: 191293680 heartbeat IPC: 3.358 cumulative IPC: 2.741 (Simulation time: 04 hr 52 min 05 sec)
Heartbeat CPU 0 instructions: 550000001 cycles: 194291415 heartbeat IPC: 3.336 cumulative IPC: 2.751 (Simulation time: 04 hr 57 min 06 sec)
Heartbeat CPU 0 instructions: 560000000 cycles: 197393198 heartbeat IPC: 3.224 cumulative IPC: 2.759 (Simulation time: 05 hr 02 min 10 sec)
Heartbeat CPU 0 instructions: 570000004 cycles: 202790298 heartbeat IPC: 1.853 cumulative IPC: 2.733 (Simulation time: 05 hr 08 min 53 sec)
Heartbeat CPU 0 instructions: 580000003 cycles: 211903760 heartbeat IPC: 1.097 cumulative IPC: 2.658 (Simulation time: 05 hr 18 min 11 sec)
Heartbeat CPU 0 instructions: 590000002 cycles: 222881752 heartbeat IPC: 0.9109 cumulative IPC: 2.567 (Simulation time: 05 hr 28 min 41 sec)
Heartbeat CPU 0 instructions: 600000004 cycles: 226015007 heartbeat IPC: 3.192 cumulative IPC: 2.576 (Simulation time: 05 hr 33 min 45 sec)
Heartbeat CPU 0 instructions: 610000002 cycles: 229000532 heartbeat IPC: 3.349 cumulative IPC: 2.587 (Simulation time: 05 hr 38 min 58 sec)
Heartbeat CPU 0 instructions: 620000001 cycles: 231787766 heartbeat IPC: 3.588 cumulative IPC: 2.6 (Simulation time: 05 hr 43 min 52 sec)
Heartbeat CPU 0 instructions: 630000002 cycles: 234781481 heartbeat IPC: 3.34 cumulative IPC: 2.61 (Simulation time: 05 hr 48 min 51 sec)
Heartbeat CPU 0 instructions: 640000004 cycles: 237736731 heartbeat IPC: 3.384 cumulative IPC: 2.62 (Simulation time: 05 hr 53 min 58 sec)
Heartbeat CPU 0 instructions: 650000000 cycles: 240491819 heartbeat IPC: 3.63 cumulative IPC: 2.632 (Simulation time: 05 hr 58 min 54 sec)
Simulation finished CPU 0 instructions: 600000001 cycles: 227954718 cumulative IPC: 2.632 (Simulation time: 05 hr 58 min 54 sec)
Simulation complete CPU 0 instructions: 600000001 cycles: 227954718 cumulative IPC: 2.632 (Simulation time: 05 hr 58 min 54 sec)

ChampSim completed all CPUs

=== Simulation ===
CPU 0 runs traces/400.perlbench-41B.champsimtrace.xz
Region of Interest Statistics

CPU 0 cumulative IPC: 2.632 instructions: 600000001 cycles: 227954718
CPU 0 Branch Prediction Accuracy: 99.19% MPKI: 1.684 Average ROB Occupancy at Mispredict: 101.6
Branch type MPKI
BRANCH_DIRECT_JUMP: 0.0123
BRANCH_INDIRECT: 0.323
BRANCH_CONDITIONAL: 1.14
BRANCH_DIRECT_CALL: 0.0043
BRANCH_INDIRECT_CALL: 0.2
BRANCH_RETURN: 0.00828

LLC TOTAL        ACCESS:     721634 HIT:     274413 MISS:     447221
LLC LOAD         ACCESS:     308501 HIT:     104753 MISS:     203748
LLC RFO          ACCESS:      25155 HIT:       8478 MISS:      16677
LLC PREFETCH     ACCESS:     308501 HIT:      93899 MISS:     214602
LLC WRITE        ACCESS:      63887 HIT:      62642 MISS:       1245
LLC TRANSLATION  ACCESS:      15590 HIT:       4641 MISS:      10949
LLC PREFETCH REQUESTED:     308501 ISSUED:     308501 USEFUL:      79648 USELESS:      80844
LLC AVERAGE MISS LATENCY: 674.1 cycles
cpu0_DTLB TOTAL        ACCESS:  129744804 HIT:  129043194 MISS:     701610
cpu0_DTLB LOAD         ACCESS:  129744804 HIT:  129043194 MISS:     701610
cpu0_DTLB RFO          ACCESS:          0 HIT:          0 MISS:          0
cpu0_DTLB PREFETCH     ACCESS:          0 HIT:          0 MISS:          0
cpu0_DTLB WRITE        ACCESS:          0 HIT:          0 MISS:          0
cpu0_DTLB TRANSLATION  ACCESS:          0 HIT:          0 MISS:          0
cpu0_DTLB PREFETCH REQUESTED:          0 ISSUED:          0 USEFUL:          0 USELESS:          0
cpu0_DTLB AVERAGE MISS LATENCY: 17.91 cycles
cpu0_ITLB TOTAL        ACCESS:    4870548 HIT:    4807888 MISS:      62660
cpu0_ITLB LOAD         ACCESS:    4870548 HIT:    4807888 MISS:      62660
cpu0_ITLB RFO          ACCESS:          0 HIT:          0 MISS:          0
cpu0_ITLB PREFETCH     ACCESS:          0 HIT:          0 MISS:          0
cpu0_ITLB WRITE        ACCESS:          0 HIT:          0 MISS:          0
cpu0_ITLB TRANSLATION  ACCESS:          0 HIT:          0 MISS:          0
cpu0_ITLB PREFETCH REQUESTED:          0 ISSUED:          0 USEFUL:          0 USELESS:          0
cpu0_ITLB AVERAGE MISS LATENCY: 7.579 cycles
cpu0_L1D TOTAL        ACCESS:  174352510 HIT:  172957149 MISS:    1395361
cpu0_L1D LOAD         ACCESS:   91331348 HIT:   90257374 MISS:    1073974
cpu0_L1D RFO          ACCESS:          0 HIT:          0 MISS:          0
cpu0_L1D PREFETCH     ACCESS:          0 HIT:          0 MISS:          0
cpu0_L1D WRITE        ACCESS:   82996696 HIT:   82698174 MISS:     298522
cpu0_L1D TRANSLATION  ACCESS:      24466 HIT:       1601 MISS:      22865
cpu0_L1D PREFETCH REQUESTED:          0 ISSUED:          0 USEFUL:          0 USELESS:          0
cpu0_L1D AVERAGE MISS LATENCY: 121.8 cycles
cpu0_L1I TOTAL        ACCESS:    5649871 HIT:    4844663 MISS:     805208
cpu0_L1I LOAD         ACCESS:    5649871 HIT:    4844663 MISS:     805208
cpu0_L1I RFO          ACCESS:          0 HIT:          0 MISS:          0
cpu0_L1I PREFETCH     ACCESS:          0 HIT:          0 MISS:          0
cpu0_L1I WRITE        ACCESS:          0 HIT:          0 MISS:          0
cpu0_L1I TRANSLATION  ACCESS:          0 HIT:          0 MISS:          0
cpu0_L1I PREFETCH REQUESTED:          0 ISSUED:          0 USEFUL:          0 USELESS:          0
cpu0_L1I AVERAGE MISS LATENCY: 13.53 cycles
cpu0_L2C TOTAL        ACCESS:    1381651 HIT:    1031508 MISS:     350143
cpu0_L2C LOAD         ACCESS:    1124011 HIT:     815510 MISS:     308501
cpu0_L2C RFO          ACCESS:      64508 HIT:      39353 MISS:      25155
cpu0_L2C PREFETCH     ACCESS:          0 HIT:          0 MISS:          0
cpu0_L2C WRITE        ACCESS:     170350 HIT:     169453 MISS:        897
cpu0_L2C TRANSLATION  ACCESS:      22782 HIT:       7192 MISS:      15590
cpu0_L2C PREFETCH REQUESTED:          0 ISSUED:          0 USEFUL:          0 USELESS:          0
cpu0_L2C AVERAGE MISS LATENCY: 517.9 cycles
cpu0_STLB TOTAL        ACCESS:     508680 HIT:     485891 MISS:      22789
cpu0_STLB LOAD         ACCESS:     508680 HIT:     485891 MISS:      22789
cpu0_STLB RFO          ACCESS:          0 HIT:          0 MISS:          0
cpu0_STLB PREFETCH     ACCESS:          0 HIT:          0 MISS:          0
cpu0_STLB WRITE        ACCESS:          0 HIT:          0 MISS:          0
cpu0_STLB TRANSLATION  ACCESS:          0 HIT:          0 MISS:          0
cpu0_STLB PREFETCH REQUESTED:          0 ISSUED:          0 USEFUL:          0 USELESS:          0
cpu0_STLB AVERAGE MISS LATENCY: 453.6 cycles

DRAM Statistics

Channel 0 RQ ROW_BUFFER_HIT:      72101
  ROW_BUFFER_MISS:     295252
 AVG DBUS CONGESTED CYCLE: 3.905
WQ ROW_BUFFER_HIT: Channel 0 
  ROW_BUFFER_MISS:       3623
  FULL:      44382
