WARNING: physical memory size is smaller than virtual memory size.

*** ChampSim Multicore Out-of-Order Simulator ***
Warmup Instructions: 50000000
Simulation Instructions: 600000000
Number of CPUs: 1
Page size: 4096

Off-chip DRAM Size: 4 GiB Channels: 1 Width: 64-bit Data Race: 3200 MT/s
Heartbeat CPU 0 instructions: 10000001 cycles: 2500318 heartbeat IPC: 3.999 cumulative IPC: 3.999 (Simulation time: 00 hr 03 min 53 sec)
Heartbeat CPU 0 instructions: 20000002 cycles: 5037077 heartbeat IPC: 3.942 cumulative IPC: 3.971 (Simulation time: 00 hr 07 min 38 sec)
Heartbeat CPU 0 instructions: 30000002 cycles: 7537077 heartbeat IPC: 4 cumulative IPC: 3.98 (Simulation time: 00 hr 11 min 01 sec)
Heartbeat CPU 0 instructions: 40000002 cycles: 10037077 heartbeat IPC: 4 cumulative IPC: 3.985 (Simulation time: 00 hr 14 min 28 sec)
Heartbeat CPU 0 instructions: 50000002 cycles: 12537077 heartbeat IPC: 4 cumulative IPC: 3.988 (Simulation time: 00 hr 17 min 57 sec)
Warmup finished CPU 0 instructions: 50000002 cycles: 12537078 cumulative IPC: 3.988 (Simulation time: 00 hr 17 min 57 sec)
Warmup complete CPU 0 instructions: 50000002 cycles: 12537078 cumulative IPC: 3.988 (Simulation time: 00 hr 17 min 57 sec)
Heartbeat CPU 0 instructions: 60000000 cycles: 17729792 heartbeat IPC: 1.926 cumulative IPC: 1.926 (Simulation time: 00 hr 23 min 13 sec)
Heartbeat CPU 0 instructions: 70000002 cycles: 22640451 heartbeat IPC: 2.036 cumulative IPC: 1.98 (Simulation time: 00 hr 28 min 26 sec)
Heartbeat CPU 0 instructions: 80000001 cycles: 28025129 heartbeat IPC: 1.857 cumulative IPC: 1.937 (Simulation time: 00 hr 33 min 53 sec)
Heartbeat CPU 0 instructions: 90000001 cycles: 32917558 heartbeat IPC: 2.044 cumulative IPC: 1.963 (Simulation time: 00 hr 39 min 07 sec)
Heartbeat CPU 0 instructions: 100000000 cycles: 38044183 heartbeat IPC: 1.951 cumulative IPC: 1.96 (Simulation time: 00 hr 44 min 30 sec)
Heartbeat CPU 0 instructions: 110000000 cycles: 42947881 heartbeat IPC: 2.039 cumulative IPC: 1.973 (Simulation time: 00 hr 49 min 43 sec)
Heartbeat CPU 0 instructions: 120000001 cycles: 48157323 heartbeat IPC: 1.92 cumulative IPC: 1.965 (Simulation time: 00 hr 55 min 06 sec)
Heartbeat CPU 0 instructions: 130000001 cycles: 53328728 heartbeat IPC: 1.934 cumulative IPC: 1.961 (Simulation time: 01 hr 00 min 33 sec)
Heartbeat CPU 0 instructions: 140000001 cycles: 58668394 heartbeat IPC: 1.873 cumulative IPC: 1.951 (Simulation time: 01 hr 06 min 01 sec)
Heartbeat CPU 0 instructions: 150000001 cycles: 63996812 heartbeat IPC: 1.877 cumulative IPC: 1.943 (Simulation time: 01 hr 11 min 31 sec)
Heartbeat CPU 0 instructions: 160000004 cycles: 69221726 heartbeat IPC: 1.914 cumulative IPC: 1.941 (Simulation time: 01 hr 16 min 58 sec)
Heartbeat CPU 0 instructions: 170000000 cycles: 79906652 heartbeat IPC: 0.9359 cumulative IPC: 1.781 (Simulation time: 01 hr 26 min 04 sec)
Heartbeat CPU 0 instructions: 180000004 cycles: 90795568 heartbeat IPC: 0.9184 cumulative IPC: 1.661 (Simulation time: 01 hr 35 min 30 sec)
Heartbeat CPU 0 instructions: 190000001 cycles: 101730659 heartbeat IPC: 0.9145 cumulative IPC: 1.57 (Simulation time: 01 hr 44 min 46 sec)
Heartbeat CPU 0 instructions: 200000003 cycles: 106511527 heartbeat IPC: 2.092 cumulative IPC: 1.596 (Simulation time: 01 hr 50 min 07 sec)
Heartbeat CPU 0 instructions: 210000001 cycles: 111442893 heartbeat IPC: 2.028 cumulative IPC: 1.618 (Simulation time: 01 hr 55 min 35 sec)
Heartbeat CPU 0 instructions: 220000000 cycles: 116277220 heartbeat IPC: 2.069 cumulative IPC: 1.639 (Simulation time: 02 hr 00 min 48 sec)
Heartbeat CPU 0 instructions: 230000002 cycles: 121617328 heartbeat IPC: 1.873 cumulative IPC: 1.65 (Simulation time: 02 hr 06 min 18 sec)
Heartbeat CPU 0 instructions: 240000000 cycles: 126477668 heartbeat IPC: 2.057 cumulative IPC: 1.668 (Simulation time: 02 hr 11 min 34 sec)
Heartbeat CPU 0 instructions: 250000000 cycles: 131643470 heartbeat IPC: 1.936 cumulative IPC: 1.679 (Simulation time: 02 hr 17 min 00 sec)
Heartbeat CPU 0 instructions: 260000000 cycles: 136687163 heartbeat IPC: 1.983 cumulative IPC: 1.692 (Simulation time: 02 hr 22 min 45 sec)
Heartbeat CPU 0 instructions: 270000002 cycles: 141584959 heartbeat IPC: 2.042 cumulative IPC: 1.705 (Simulation time: 02 hr 28 min 02 sec)
Heartbeat CPU 0 instructions: 280000002 cycles: 146508296 heartbeat IPC: 2.031 cumulative IPC: 1.717 (Simulation time: 02 hr 33 min 21 sec)
Heartbeat CPU 0 instructions: 290000001 cycles: 151888687 heartbeat IPC: 1.859 cumulative IPC: 1.722 (Simulation time: 02 hr 38 min 57 sec)
Heartbeat CPU 0 instructions: 300000003 cycles: 156962457 heartbeat IPC: 1.971 cumulative IPC: 1.731 (Simulation time: 02 hr 44 min 23 sec)
Heartbeat CPU 0 instructions: 310000001 cycles: 162279672 heartbeat IPC: 1.881 cumulative IPC: 1.736 (Simulation time: 02 hr 50 min 00 sec)
Heartbeat CPU 0 instructions: 320000003 cycles: 167499679 heartbeat IPC: 1.916 cumulative IPC: 1.742 (Simulation time: 02 hr 55 min 27 sec)
Heartbeat CPU 0 instructions: 330000003 cycles: 172812616 heartbeat IPC: 1.882 cumulative IPC: 1.747 (Simulation time: 03 hr 00 min 56 sec)
Heartbeat CPU 0 instructions: 340000000 cycles: 183677197 heartbeat IPC: 0.9204 cumulative IPC: 1.695 (Simulation time: 03 hr 10 min 10 sec)
Heartbeat CPU 0 instructions: 350000000 cycles: 195274543 heartbeat IPC: 0.8623 cumulative IPC: 1.642 (Simulation time: 03 hr 20 min 42 sec)
Heartbeat CPU 0 instructions: 360000004 cycles: 206304516 heartbeat IPC: 0.9066 cumulative IPC: 1.6 (Simulation time: 03 hr 30 min 08 sec)
Heartbeat CPU 0 instructions: 370000000 cycles: 210725362 heartbeat IPC: 2.262 cumulative IPC: 1.615 (Simulation time: 03 hr 35 min 11 sec)
Heartbeat CPU 0 instructions: 380000001 cycles: 215659000 heartbeat IPC: 2.027 cumulative IPC: 1.625 (Simulation time: 03 hr 40 min 30 sec)
Heartbeat CPU 0 instructions: 390000002 cycles: 220489972 heartbeat IPC: 2.07 cumulative IPC: 1.635 (Simulation time: 03 hr 45 min 53 sec)
Heartbeat CPU 0 instructions: 400000004 cycles: 225426184 heartbeat IPC: 2.026 cumulative IPC: 1.644 (Simulation time: 03 hr 51 min 08 sec)
Heartbeat CPU 0 instructions: 410000000 cycles: 230157798 heartbeat IPC: 2.113 cumulative IPC: 1.654 (Simulation time: 03 hr 56 min 15 sec)
Heartbeat CPU 0 instructions: 420000000 cycles: 235337655 heartbeat IPC: 1.931 cumulative IPC: 1.661 (Simulation time: 04 hr 01 min 41 sec)
Heartbeat CPU 0 instructions: 430000001 cycles: 239818475 heartbeat IPC: 2.232 cumulative IPC: 1.672 (Simulation time: 04 hr 06 min 50 sec)
Heartbeat CPU 0 instructions: 440000000 cycles: 245177297 heartbeat IPC: 1.866 cumulative IPC: 1.676 (Simulation time: 04 hr 12 min 22 sec)
Heartbeat CPU 0 instructions: 450000002 cycles: 249858641 heartbeat IPC: 2.136 cumulative IPC: 1.685 (Simulation time: 04 hr 17 min 37 sec)
Heartbeat CPU 0 instructions: 460000000 cycles: 254661824 heartbeat IPC: 2.082 cumulative IPC: 1.693 (Simulation time: 04 hr 22 min 53 sec)
Heartbeat CPU 0 instructions: 470000000 cycles: 259644635 heartbeat IPC: 2.007 cumulative IPC: 1.7 (Simulation time: 04 hr 28 min 13 sec)
Heartbeat CPU 0 instructions: 480000003 cycles: 264447030 heartbeat IPC: 2.082 cumulative IPC: 1.707 (Simulation time: 04 hr 33 min 27 sec)
Heartbeat CPU 0 instructions: 490000000 cycles: 269064230 heartbeat IPC: 2.166 cumulative IPC: 1.715 (Simulation time: 04 hr 38 min 35 sec)
Heartbeat CPU 0 instructions: 500000000 cycles: 274096253 heartbeat IPC: 1.987 cumulative IPC: 1.72 (Simulation time: 04 hr 43 min 59 sec)
Heartbeat CPU 0 instructions: 510000003 cycles: 279753811 heartbeat IPC: 1.768 cumulative IPC: 1.721 (Simulation time: 04 hr 49 min 46 sec)
Heartbeat CPU 0 instructions: 520000001 cycles: 284453278 heartbeat IPC: 2.128 cumulative IPC: 1.728 (Simulation time: 04 hr 54 min 59 sec)
Heartbeat CPU 0 instructions: 530000002 cycles: 289609152 heartbeat IPC: 1.94 cumulative IPC: 1.732 (Simulation time: 05 hr 00 min 28 sec)
Heartbeat CPU 0 instructions: 540000000 cycles: 294735698 heartbeat IPC: 1.951 cumulative IPC: 1.736 (Simulation time: 05 hr 05 min 53 sec)
Heartbeat CPU 0 instructions: 550000001 cycles: 299544676 heartbeat IPC: 2.079 cumulative IPC: 1.742 (Simulation time: 05 hr 11 min 15 sec)
Heartbeat CPU 0 instructions: 560000000 cycles: 304778013 heartbeat IPC: 1.911 cumulative IPC: 1.745 (Simulation time: 05 hr 16 min 43 sec)
Heartbeat CPU 0 instructions: 570000004 cycles: 312271937 heartbeat IPC: 1.334 cumulative IPC: 1.735 (Simulation time: 05 hr 23 min 47 sec)
Heartbeat CPU 0 instructions: 580000003 cycles: 324478136 heartbeat IPC: 0.8193 cumulative IPC: 1.699 (Simulation time: 05 hr 34 min 07 sec)
Heartbeat CPU 0 instructions: 590000002 cycles: 338146721 heartbeat IPC: 0.7316 cumulative IPC: 1.658 (Simulation time: 05 hr 45 min 12 sec)
Heartbeat CPU 0 instructions: 600000000 cycles: 342751220 heartbeat IPC: 2.172 cumulative IPC: 1.666 (Simulation time: 05 hr 50 min 30 sec)
Heartbeat CPU 0 instructions: 610000002 cycles: 347251125 heartbeat IPC: 2.222 cumulative IPC: 1.673 (Simulation time: 05 hr 55 min 31 sec)
Heartbeat CPU 0 instructions: 620000000 cycles: 352062089 heartbeat IPC: 2.079 cumulative IPC: 1.679 (Simulation time: 06 hr 00 min 43 sec)
Heartbeat CPU 0 instructions: 630000002 cycles: 357153949 heartbeat IPC: 1.964 cumulative IPC: 1.683 (Simulation time: 06 hr 06 min 17 sec)
Heartbeat CPU 0 instructions: 640000001 cycles: 362006747 heartbeat IPC: 2.061 cumulative IPC: 1.688 (Simulation time: 06 hr 11 min 47 sec)
Heartbeat CPU 0 instructions: 650000000 cycles: 366563898 heartbeat IPC: 2.194 cumulative IPC: 1.695 (Simulation time: 06 hr 17 min 19 sec)
Simulation finished CPU 0 instructions: 600000001 cycles: 354026822 cumulative IPC: 1.695 (Simulation time: 06 hr 17 min 19 sec)
Simulation complete CPU 0 instructions: 600000001 cycles: 354026822 cumulative IPC: 1.695 (Simulation time: 06 hr 17 min 19 sec)

ChampSim completed all CPUs

=== Simulation ===
CPU 0 runs traces/400.perlbench-41B.champsimtrace.xz
Region of Interest Statistics

CPU 0 cumulative IPC: 1.695 instructions: 600000001 cycles: 354026822
CPU 0 Branch Prediction Accuracy: 93.95% MPKI: 12.5 Average ROB Occupancy at Mispredict: 29.64
Branch type MPKI
BRANCH_DIRECT_JUMP: 0.0123
BRANCH_INDIRECT: 0.323
BRANCH_CONDITIONAL: 12
BRANCH_DIRECT_CALL: 0.0043
BRANCH_INDIRECT_CALL: 0.2
BRANCH_RETURN: 0.00828

LLC TOTAL        ACCESS:     414986 HIT:     136783 MISS:     278203
LLC LOAD         ACCESS:     309563 HIT:      59683 MISS:     249880
LLC RFO          ACCESS:      25087 HIT:       8391 MISS:      16696
LLC PREFETCH     ACCESS:          0 HIT:          0 MISS:          0
LLC WRITE        ACCESS:      64560 HIT:      63331 MISS:       1229
LLC TRANSLATION  ACCESS:      15776 HIT:       5378 MISS:      10398
LLC PREFETCH REQUESTED:          0 ISSUED:          0 USEFUL:          0 USELESS:          0
LLC AVERAGE MISS LATENCY: 568.2 cycles
cpu0_DTLB TOTAL        ACCESS:  153659479 HIT:  152981882 MISS:     677597
cpu0_DTLB LOAD         ACCESS:  153659479 HIT:  152981882 MISS:     677597
cpu0_DTLB RFO          ACCESS:          0 HIT:          0 MISS:          0
cpu0_DTLB PREFETCH     ACCESS:          0 HIT:          0 MISS:          0
cpu0_DTLB WRITE        ACCESS:          0 HIT:          0 MISS:          0
cpu0_DTLB TRANSLATION  ACCESS:          0 HIT:          0 MISS:          0
cpu0_DTLB PREFETCH REQUESTED:          0 ISSUED:          0 USEFUL:          0 USELESS:          0
cpu0_DTLB AVERAGE MISS LATENCY: 16.17 cycles
cpu0_ITLB TOTAL        ACCESS:    4835031 HIT:    4776984 MISS:      58047
cpu0_ITLB LOAD         ACCESS:    4835031 HIT:    4776984 MISS:      58047
cpu0_ITLB RFO          ACCESS:          0 HIT:          0 MISS:          0
cpu0_ITLB PREFETCH     ACCESS:          0 HIT:          0 MISS:          0
cpu0_ITLB WRITE        ACCESS:          0 HIT:          0 MISS:          0
cpu0_ITLB TRANSLATION  ACCESS:          0 HIT:          0 MISS:          0
cpu0_ITLB PREFETCH REQUESTED:          0 ISSUED:          0 USEFUL:          0 USELESS:          0
cpu0_ITLB AVERAGE MISS LATENCY: 7.426 cycles
cpu0_L1D TOTAL        ACCESS:  200277483 HIT:  198930308 MISS:    1347175
cpu0_L1D LOAD         ACCESS:  117033952 HIT:  115998520 MISS:    1035432
cpu0_L1D RFO          ACCESS:          0 HIT:          0 MISS:          0
cpu0_L1D PREFETCH     ACCESS:          0 HIT:          0 MISS:          0
cpu0_L1D WRITE        ACCESS:   83219065 HIT:   82930216 MISS:     288849
cpu0_L1D TRANSLATION  ACCESS:      24466 HIT:       1572 MISS:      22894
cpu0_L1D PREFETCH REQUESTED:          0 ISSUED:          0 USEFUL:          0 USELESS:          0
cpu0_L1D AVERAGE MISS LATENCY: 119.6 cycles
cpu0_L1I TOTAL        ACCESS:    5577274 HIT:    4815151 MISS:     762123
cpu0_L1I LOAD         ACCESS:    5577274 HIT:    4815151 MISS:     762123
cpu0_L1I RFO          ACCESS:          0 HIT:          0 MISS:          0
cpu0_L1I PREFETCH     ACCESS:          0 HIT:          0 MISS:          0
cpu0_L1I WRITE        ACCESS:          0 HIT:          0 MISS:          0
cpu0_L1I TRANSLATION  ACCESS:          0 HIT:          0 MISS:          0
cpu0_L1I PREFETCH REQUESTED:          0 ISSUED:          0 USEFUL:          0 USELESS:          0
cpu0_L1I AVERAGE MISS LATENCY: 14.76 cycles
cpu0_L2C TOTAL        ACCESS:    1382544 HIT:    1031254 MISS:     351290
cpu0_L2C LOAD         ACCESS:    1125652 HIT:     816089 MISS:     309563
cpu0_L2C RFO          ACCESS:      63924 HIT:      38837 MISS:      25087
cpu0_L2C PREFETCH     ACCESS:          0 HIT:          0 MISS:          0
cpu0_L2C WRITE        ACCESS:     170155 HIT:     169291 MISS:        864
cpu0_L2C TRANSLATION  ACCESS:      22813 HIT:       7037 MISS:      15776
cpu0_L2C PREFETCH REQUESTED:          0 ISSUED:          0 USEFUL:          0 USELESS:          0
cpu0_L2C AVERAGE MISS LATENCY: 470.7 cycles
cpu0_STLB TOTAL        ACCESS:     505168 HIT:     482377 MISS:      22791
cpu0_STLB LOAD         ACCESS:     505168 HIT:     482377 MISS:      22791
cpu0_STLB RFO          ACCESS:          0 HIT:          0 MISS:          0
cpu0_STLB PREFETCH     ACCESS:          0 HIT:          0 MISS:          0
cpu0_STLB WRITE        ACCESS:          0 HIT:          0 MISS:          0
cpu0_STLB TRANSLATION  ACCESS:          0 HIT:          0 MISS:          0
cpu0_STLB PREFETCH REQUESTED:          0 ISSUED:          0 USEFUL:          0 USELESS:          0
cpu0_STLB AVERAGE MISS LATENCY: 361.3 cycles

DRAM Statistics

Channel 0 RQ ROW_BUFFER_HIT:      41700
  ROW_BUFFER_MISS:     235238
 AVG DBUS CONGESTED CYCLE: 3.817
WQ ROW_BUFFER_HIT: Channel 0 
  ROW_BUFFER_MISS:       7349
  FULL:      38378
