WARNING: physical memory size is smaller than virtual memory size.

*** ChampSim Multicore Out-of-Order Simulator ***
Warmup Instructions: 50000000
Simulation Instructions: 600000000
Number of CPUs: 1
Page size: 4096

CPU 0 Tage branch predictor
Off-chip DRAM Size: 4 GiB Channels: 1 Width: 64-bit Data Race: 3200 MT/s
Heartbeat CPU 0 instructions: 10000000 cycles: 2500061 heartbeat IPC: 4 cumulative IPC: 4 (Simulation time: 00 hr 04 min 10 sec)
Heartbeat CPU 0 instructions: 20000000 cycles: 5000061 heartbeat IPC: 4 cumulative IPC: 4 (Simulation time: 00 hr 08 min 18 sec)
Heartbeat CPU 0 instructions: 30000000 cycles: 7500061 heartbeat IPC: 4 cumulative IPC: 4 (Simulation time: 00 hr 12 min 26 sec)
Heartbeat CPU 0 instructions: 40000000 cycles: 10000061 heartbeat IPC: 4 cumulative IPC: 4 (Simulation time: 00 hr 16 min 34 sec)
Heartbeat CPU 0 instructions: 50000000 cycles: 12500061 heartbeat IPC: 4 cumulative IPC: 4 (Simulation time: 00 hr 20 min 57 sec)
Warmup finished CPU 0 instructions: 50000000 cycles: 12500062 cumulative IPC: 4 (Simulation time: 00 hr 20 min 57 sec)
Warmup complete CPU 0 instructions: 50000000 cycles: 12500062 cumulative IPC: 4 (Simulation time: 00 hr 20 min 57 sec)
Heartbeat CPU 0 instructions: 60000004 cycles: 15504100 heartbeat IPC: 3.329 cumulative IPC: 3.329 (Simulation time: 00 hr 25 min 57 sec)
Heartbeat CPU 0 instructions: 70000003 cycles: 18373617 heartbeat IPC: 3.485 cumulative IPC: 3.405 (Simulation time: 00 hr 30 min 52 sec)
Heartbeat CPU 0 instructions: 80000002 cycles: 21383533 heartbeat IPC: 3.322 cumulative IPC: 3.377 (Simulation time: 00 hr 35 min 50 sec)
Heartbeat CPU 0 instructions: 90000000 cycles: 24104255 heartbeat IPC: 3.675 cumulative IPC: 3.447 (Simulation time: 00 hr 40 min 37 sec)
Heartbeat CPU 0 instructions: 100000003 cycles: 26859330 heartbeat IPC: 3.63 cumulative IPC: 3.482 (Simulation time: 00 hr 45 min 28 sec)
Heartbeat CPU 0 instructions: 110000001 cycles: 29757799 heartbeat IPC: 3.45 cumulative IPC: 3.477 (Simulation time: 00 hr 50 min 19 sec)
Heartbeat CPU 0 instructions: 120000001 cycles: 32473952 heartbeat IPC: 3.682 cumulative IPC: 3.505 (Simulation time: 00 hr 55 min 07 sec)
Heartbeat CPU 0 instructions: 130000003 cycles: 35370630 heartbeat IPC: 3.452 cumulative IPC: 3.498 (Simulation time: 01 hr 00 min 01 sec)
Heartbeat CPU 0 instructions: 140000002 cycles: 38206882 heartbeat IPC: 3.526 cumulative IPC: 3.501 (Simulation time: 01 hr 04 min 51 sec)
Heartbeat CPU 0 instructions: 150000001 cycles: 40975811 heartbeat IPC: 3.612 cumulative IPC: 3.512 (Simulation time: 01 hr 09 min 40 sec)
Heartbeat CPU 0 instructions: 160000000 cycles: 43893181 heartbeat IPC: 3.428 cumulative IPC: 3.504 (Simulation time: 01 hr 14 min 34 sec)
Heartbeat CPU 0 instructions: 170000001 cycles: 46816650 heartbeat IPC: 3.421 cumulative IPC: 3.497 (Simulation time: 01 hr 19 min 32 sec)
Heartbeat CPU 0 instructions: 180000000 cycles: 49608626 heartbeat IPC: 3.582 cumulative IPC: 3.503 (Simulation time: 01 hr 24 min 25 sec)
Heartbeat CPU 0 instructions: 190000002 cycles: 52314925 heartbeat IPC: 3.695 cumulative IPC: 3.516 (Simulation time: 01 hr 29 min 17 sec)
Heartbeat CPU 0 instructions: 200000002 cycles: 55138402 heartbeat IPC: 3.542 cumulative IPC: 3.518 (Simulation time: 01 hr 34 min 14 sec)
Heartbeat CPU 0 instructions: 210000000 cycles: 58028965 heartbeat IPC: 3.46 cumulative IPC: 3.514 (Simulation time: 01 hr 39 min 11 sec)
Heartbeat CPU 0 instructions: 220000001 cycles: 60778012 heartbeat IPC: 3.638 cumulative IPC: 3.521 (Simulation time: 01 hr 44 min 03 sec)
Heartbeat CPU 0 instructions: 230000002 cycles: 63665869 heartbeat IPC: 3.463 cumulative IPC: 3.518 (Simulation time: 01 hr 48 min 57 sec)
Heartbeat CPU 0 instructions: 240000004 cycles: 66616905 heartbeat IPC: 3.389 cumulative IPC: 3.511 (Simulation time: 01 hr 53 min 54 sec)
Heartbeat CPU 0 instructions: 250000003 cycles: 69506864 heartbeat IPC: 3.46 cumulative IPC: 3.508 (Simulation time: 01 hr 59 min 02 sec)
Heartbeat CPU 0 instructions: 260000001 cycles: 72290938 heartbeat IPC: 3.592 cumulative IPC: 3.512 (Simulation time: 02 hr 03 min 56 sec)
Heartbeat CPU 0 instructions: 270000002 cycles: 78083398 heartbeat IPC: 1.726 cumulative IPC: 3.355 (Simulation time: 02 hr 10 min 54 sec)
Heartbeat CPU 0 instructions: 280000000 cycles: 87986962 heartbeat IPC: 1.01 cumulative IPC: 3.047 (Simulation time: 02 hr 20 min 46 sec)
Heartbeat CPU 0 instructions: 290000000 cycles: 97108824 heartbeat IPC: 1.096 cumulative IPC: 2.837 (Simulation time: 02 hr 30 min 10 sec)
Heartbeat CPU 0 instructions: 300000003 cycles: 102718090 heartbeat IPC: 1.783 cumulative IPC: 2.771 (Simulation time: 02 hr 37 min 20 sec)
Heartbeat CPU 0 instructions: 310000001 cycles: 111684230 heartbeat IPC: 1.115 cumulative IPC: 2.621 (Simulation time: 02 hr 46 min 42 sec)
Heartbeat CPU 0 instructions: 320000004 cycles: 115682847 heartbeat IPC: 2.501 cumulative IPC: 2.617 (Simulation time: 02 hr 52 min 37 sec)
Heartbeat CPU 0 instructions: 330000000 cycles: 118835450 heartbeat IPC: 3.172 cumulative IPC: 2.633 (Simulation time: 02 hr 57 min 47 sec)
Heartbeat CPU 0 instructions: 340000001 cycles: 121989371 heartbeat IPC: 3.171 cumulative IPC: 2.649 (Simulation time: 03 hr 02 min 58 sec)
Heartbeat CPU 0 instructions: 350000000 cycles: 125228074 heartbeat IPC: 3.088 cumulative IPC: 2.661 (Simulation time: 03 hr 08 min 15 sec)
Heartbeat CPU 0 instructions: 360000004 cycles: 128187867 heartbeat IPC: 3.379 cumulative IPC: 2.68 (Simulation time: 03 hr 13 min 20 sec)
Heartbeat CPU 0 instructions: 370000001 cycles: 131068136 heartbeat IPC: 3.472 cumulative IPC: 2.699 (Simulation time: 03 hr 18 min 28 sec)
Heartbeat CPU 0 instructions: 380000004 cycles: 133937838 heartbeat IPC: 3.485 cumulative IPC: 2.717 (Simulation time: 03 hr 23 min 29 sec)
Heartbeat CPU 0 instructions: 390000002 cycles: 136917224 heartbeat IPC: 3.356 cumulative IPC: 2.733 (Simulation time: 03 hr 28 min 36 sec)
Heartbeat CPU 0 instructions: 400000000 cycles: 139880981 heartbeat IPC: 3.374 cumulative IPC: 2.748 (Simulation time: 03 hr 33 min 36 sec)
Heartbeat CPU 0 instructions: 410000000 cycles: 145510902 heartbeat IPC: 1.776 cumulative IPC: 2.707 (Simulation time: 03 hr 40 min 31 sec)
Heartbeat CPU 0 instructions: 420000003 cycles: 154721521 heartbeat IPC: 1.086 cumulative IPC: 2.602 (Simulation time: 03 hr 50 min 00 sec)
Heartbeat CPU 0 instructions: 430000004 cycles: 160408395 heartbeat IPC: 1.758 cumulative IPC: 2.569 (Simulation time: 03 hr 57 min 18 sec)
Heartbeat CPU 0 instructions: 440000004 cycles: 166519375 heartbeat IPC: 1.636 cumulative IPC: 2.532 (Simulation time: 04 hr 04 min 44 sec)
Heartbeat CPU 0 instructions: 450000000 cycles: 172101387 heartbeat IPC: 1.791 cumulative IPC: 2.506 (Simulation time: 04 hr 11 min 47 sec)
Heartbeat CPU 0 instructions: 460000002 cycles: 182463387 heartbeat IPC: 0.9651 cumulative IPC: 2.412 (Simulation time: 04 hr 22 min 06 sec)
Heartbeat CPU 0 instructions: 470000003 cycles: 190464314 heartbeat IPC: 1.25 cumulative IPC: 2.36 (Simulation time: 04 hr 30 min 48 sec)
Heartbeat CPU 0 instructions: 480000000 cycles: 193886704 heartbeat IPC: 2.922 cumulative IPC: 2.371 (Simulation time: 04 hr 36 min 22 sec)
Heartbeat CPU 0 instructions: 490000001 cycles: 197289848 heartbeat IPC: 2.938 cumulative IPC: 2.381 (Simulation time: 04 hr 41 min 43 sec)
Heartbeat CPU 0 instructions: 500000002 cycles: 200457012 heartbeat IPC: 3.157 cumulative IPC: 2.394 (Simulation time: 04 hr 46 min 52 sec)
Heartbeat CPU 0 instructions: 510000000 cycles: 203414646 heartbeat IPC: 3.381 cumulative IPC: 2.409 (Simulation time: 04 hr 51 min 54 sec)
Heartbeat CPU 0 instructions: 520000000 cycles: 206359139 heartbeat IPC: 3.396 cumulative IPC: 2.424 (Simulation time: 04 hr 56 min 56 sec)
Heartbeat CPU 0 instructions: 530000001 cycles: 214989488 heartbeat IPC: 1.159 cumulative IPC: 2.37 (Simulation time: 05 hr 05 min 55 sec)
Heartbeat CPU 0 instructions: 540000000 cycles: 224640830 heartbeat IPC: 1.036 cumulative IPC: 2.31 (Simulation time: 05 hr 15 min 46 sec)
Heartbeat CPU 0 instructions: 550000004 cycles: 235784629 heartbeat IPC: 0.8974 cumulative IPC: 2.239 (Simulation time: 05 hr 26 min 35 sec)
Heartbeat CPU 0 instructions: 560000004 cycles: 239555608 heartbeat IPC: 2.652 cumulative IPC: 2.246 (Simulation time: 05 hr 32 min 06 sec)
Heartbeat CPU 0 instructions: 570000002 cycles: 242377480 heartbeat IPC: 3.544 cumulative IPC: 2.262 (Simulation time: 05 hr 37 min 06 sec)
Heartbeat CPU 0 instructions: 580000000 cycles: 245298763 heartbeat IPC: 3.423 cumulative IPC: 2.277 (Simulation time: 05 hr 42 min 05 sec)
Heartbeat CPU 0 instructions: 590000001 cycles: 248220685 heartbeat IPC: 3.422 cumulative IPC: 2.291 (Simulation time: 05 hr 47 min 01 sec)
Heartbeat CPU 0 instructions: 600000003 cycles: 250910324 heartbeat IPC: 3.718 cumulative IPC: 2.307 (Simulation time: 05 hr 51 min 54 sec)
Heartbeat CPU 0 instructions: 610000001 cycles: 253772364 heartbeat IPC: 3.494 cumulative IPC: 2.321 (Simulation time: 05 hr 56 min 52 sec)
Heartbeat CPU 0 instructions: 620000004 cycles: 256721565 heartbeat IPC: 3.391 cumulative IPC: 2.334 (Simulation time: 06 hr 01 min 53 sec)
Heartbeat CPU 0 instructions: 630000002 cycles: 259530510 heartbeat IPC: 3.56 cumulative IPC: 2.348 (Simulation time: 06 hr 06 min 58 sec)
Heartbeat CPU 0 instructions: 640000004 cycles: 262574960 heartbeat IPC: 3.285 cumulative IPC: 2.359 (Simulation time: 06 hr 12 min 07 sec)
Heartbeat CPU 0 instructions: 650000001 cycles: 265284313 heartbeat IPC: 3.691 cumulative IPC: 2.374 (Simulation time: 06 hr 17 min 00 sec)
Simulation finished CPU 0 instructions: 600000001 cycles: 252784252 cumulative IPC: 2.374 (Simulation time: 06 hr 17 min 00 sec)
Simulation complete CPU 0 instructions: 600000001 cycles: 252784252 cumulative IPC: 2.374 (Simulation time: 06 hr 17 min 00 sec)

ChampSim completed all CPUs

=== Simulation ===
CPU 0 runs traces/400.perlbench-50B.champsimtrace.xz
Region of Interest Statistics

CPU 0 cumulative IPC: 2.374 instructions: 600000001 cycles: 252784252
CPU 0 Branch Prediction Accuracy: 99.01% MPKI: 2.04 Average ROB Occupancy at Mispredict: 94.61
Branch type MPKI
BRANCH_DIRECT_JUMP: 0.0176
BRANCH_INDIRECT: 0.38
BRANCH_CONDITIONAL: 1.19
BRANCH_DIRECT_CALL: 0.0067
BRANCH_INDIRECT_CALL: 0.431
BRANCH_RETURN: 0.0161

LLC TOTAL        ACCESS:     565648 HIT:     194229 MISS:     371419
LLC LOAD         ACCESS:     376966 HIT:     110567 MISS:     266399
LLC RFO          ACCESS:      32645 HIT:      10348 MISS:      22297
LLC PREFETCH     ACCESS:      54079 HIT:      35832 MISS:      18247
LLC WRITE        ACCESS:      83776 HIT:      35730 MISS:      48046
LLC TRANSLATION  ACCESS:      18182 HIT:       1752 MISS:      16430
LLC PREFETCH REQUESTED:      54079 ISSUED:      54079 USEFUL:       8730 USELESS:       6315
LLC AVERAGE MISS LATENCY: 528.5 cycles
cpu0_DTLB TOTAL        ACCESS:  133151661 HIT:  131799852 MISS:    1351809
cpu0_DTLB LOAD         ACCESS:  133151661 HIT:  131799852 MISS:    1351809
cpu0_DTLB RFO          ACCESS:          0 HIT:          0 MISS:          0
cpu0_DTLB PREFETCH     ACCESS:          0 HIT:          0 MISS:          0
cpu0_DTLB WRITE        ACCESS:          0 HIT:          0 MISS:          0
cpu0_DTLB TRANSLATION  ACCESS:          0 HIT:          0 MISS:          0
cpu0_DTLB PREFETCH REQUESTED:          0 ISSUED:          0 USEFUL:          0 USELESS:          0
cpu0_DTLB AVERAGE MISS LATENCY: 14.01 cycles
cpu0_ITLB TOTAL        ACCESS:    8997089 HIT:    8786758 MISS:     210331
cpu0_ITLB LOAD         ACCESS:    8997089 HIT:    8786758 MISS:     210331
cpu0_ITLB RFO          ACCESS:          0 HIT:          0 MISS:          0
cpu0_ITLB PREFETCH     ACCESS:          0 HIT:          0 MISS:          0
cpu0_ITLB WRITE        ACCESS:          0 HIT:          0 MISS:          0
cpu0_ITLB TRANSLATION  ACCESS:          0 HIT:          0 MISS:          0
cpu0_ITLB PREFETCH REQUESTED:          0 ISSUED:          0 USEFUL:          0 USELESS:          0
cpu0_ITLB AVERAGE MISS LATENCY: 3.347 cycles
cpu0_L1D TOTAL        ACCESS:  178218816 HIT:  175286546 MISS:    2932270
cpu0_L1D LOAD         ACCESS:   92700527 HIT:   90294685 MISS:    2405842
cpu0_L1D RFO          ACCESS:          0 HIT:          0 MISS:          0
cpu0_L1D PREFETCH     ACCESS:          0 HIT:          0 MISS:          0
cpu0_L1D WRITE        ACCESS:   85489757 HIT:   84989861 MISS:     499896
cpu0_L1D TRANSLATION  ACCESS:      28532 HIT:       2000 MISS:      26532
cpu0_L1D PREFETCH REQUESTED:          0 ISSUED:          0 USEFUL:          0 USELESS:          0
cpu0_L1D AVERAGE MISS LATENCY: 63.29 cycles
cpu0_L1I TOTAL        ACCESS:   10516402 HIT:    8615906 MISS:    1900496
cpu0_L1I LOAD         ACCESS:   10516402 HIT:    8615906 MISS:    1900496
cpu0_L1I RFO          ACCESS:          0 HIT:          0 MISS:          0
cpu0_L1I PREFETCH     ACCESS:          0 HIT:          0 MISS:          0
cpu0_L1I WRITE        ACCESS:          0 HIT:          0 MISS:          0
cpu0_L1I TRANSLATION  ACCESS:          0 HIT:          0 MISS:          0
cpu0_L1I PREFETCH REQUESTED:          0 ISSUED:          0 USEFUL:          0 USELESS:          0
cpu0_L1I AVERAGE MISS LATENCY: 13.17 cycles
cpu0_L2C TOTAL        ACCESS:    3236100 HIT:    2807315 MISS:     428785
cpu0_L2C LOAD         ACCESS:    2709157 HIT:    2332191 MISS:     376966
cpu0_L2C RFO          ACCESS:     135553 HIT:     102908 MISS:      32645
cpu0_L2C PREFETCH     ACCESS:          0 HIT:          0 MISS:          0
cpu0_L2C WRITE        ACCESS:     364943 HIT:     363951 MISS:        992
cpu0_L2C TRANSLATION  ACCESS:      26447 HIT:       8265 MISS:      18182
cpu0_L2C PREFETCH REQUESTED:          0 ISSUED:          0 USEFUL:          0 USELESS:          0
cpu0_L2C AVERAGE MISS LATENCY: 453.5 cycles
cpu0_STLB TOTAL        ACCESS:    1009939 HIT:     983249 MISS:      26690
cpu0_STLB LOAD         ACCESS:    1009939 HIT:     983249 MISS:      26690
cpu0_STLB RFO          ACCESS:          0 HIT:          0 MISS:          0
cpu0_STLB PREFETCH     ACCESS:          0 HIT:          0 MISS:          0
cpu0_STLB WRITE        ACCESS:          0 HIT:          0 MISS:          0
cpu0_STLB TRANSLATION  ACCESS:          0 HIT:          0 MISS:          0
cpu0_STLB PREFETCH REQUESTED:          0 ISSUED:          0 USEFUL:          0 USELESS:          0
cpu0_STLB AVERAGE MISS LATENCY: 515.9 cycles

DRAM Statistics

Channel 0 RQ ROW_BUFFER_HIT:      57229
  ROW_BUFFER_MISS:     261633
 AVG DBUS CONGESTED CYCLE: 3.845
WQ ROW_BUFFER_HIT: Channel 0 
  ROW_BUFFER_MISS:       7094
  FULL:      42100
