WARNING: physical memory size is smaller than virtual memory size.

*** ChampSim Multicore Out-of-Order Simulator ***
Warmup Instructions: 50000000
Simulation Instructions: 600000000
Number of CPUs: 1
Page size: 4096

CPU 0 Tage branch predictor
Off-chip DRAM Size: 4 GiB Channels: 1 Width: 64-bit Data Race: 3200 MT/s
Heartbeat CPU 0 instructions: 10000000 cycles: 2500061 heartbeat IPC: 4 cumulative IPC: 4 (Simulation time: 00 hr 04 min 10 sec)
Heartbeat CPU 0 instructions: 20000000 cycles: 5000061 heartbeat IPC: 4 cumulative IPC: 4 (Simulation time: 00 hr 08 min 17 sec)
Heartbeat CPU 0 instructions: 30000000 cycles: 7500061 heartbeat IPC: 4 cumulative IPC: 4 (Simulation time: 00 hr 12 min 23 sec)
Heartbeat CPU 0 instructions: 40000000 cycles: 10000061 heartbeat IPC: 4 cumulative IPC: 4 (Simulation time: 00 hr 16 min 31 sec)
Heartbeat CPU 0 instructions: 50000000 cycles: 12500061 heartbeat IPC: 4 cumulative IPC: 4 (Simulation time: 00 hr 20 min 39 sec)
Warmup finished CPU 0 instructions: 50000000 cycles: 12500062 cumulative IPC: 4 (Simulation time: 00 hr 20 min 39 sec)
Warmup complete CPU 0 instructions: 50000000 cycles: 12500062 cumulative IPC: 4 (Simulation time: 00 hr 20 min 39 sec)
Heartbeat CPU 0 instructions: 60000004 cycles: 15504100 heartbeat IPC: 3.329 cumulative IPC: 3.329 (Simulation time: 00 hr 25 min 52 sec)
Heartbeat CPU 0 instructions: 70000003 cycles: 18373617 heartbeat IPC: 3.485 cumulative IPC: 3.405 (Simulation time: 00 hr 30 min 42 sec)
Heartbeat CPU 0 instructions: 80000002 cycles: 21383533 heartbeat IPC: 3.322 cumulative IPC: 3.377 (Simulation time: 00 hr 35 min 54 sec)
Heartbeat CPU 0 instructions: 90000000 cycles: 24104255 heartbeat IPC: 3.675 cumulative IPC: 3.447 (Simulation time: 00 hr 40 min 43 sec)
Heartbeat CPU 0 instructions: 100000003 cycles: 26859330 heartbeat IPC: 3.63 cumulative IPC: 3.482 (Simulation time: 00 hr 45 min 55 sec)
Heartbeat CPU 0 instructions: 110000001 cycles: 29757799 heartbeat IPC: 3.45 cumulative IPC: 3.477 (Simulation time: 00 hr 50 min 59 sec)
Heartbeat CPU 0 instructions: 120000001 cycles: 32473952 heartbeat IPC: 3.682 cumulative IPC: 3.505 (Simulation time: 00 hr 56 min 01 sec)
Heartbeat CPU 0 instructions: 130000003 cycles: 35370630 heartbeat IPC: 3.452 cumulative IPC: 3.498 (Simulation time: 01 hr 00 min 59 sec)
Heartbeat CPU 0 instructions: 140000002 cycles: 38206882 heartbeat IPC: 3.526 cumulative IPC: 3.501 (Simulation time: 01 hr 06 min 23 sec)
Heartbeat CPU 0 instructions: 150000001 cycles: 40975811 heartbeat IPC: 3.612 cumulative IPC: 3.512 (Simulation time: 01 hr 11 min 13 sec)
Heartbeat CPU 0 instructions: 160000000 cycles: 43893181 heartbeat IPC: 3.428 cumulative IPC: 3.504 (Simulation time: 01 hr 16 min 21 sec)
Heartbeat CPU 0 instructions: 170000001 cycles: 46816650 heartbeat IPC: 3.421 cumulative IPC: 3.497 (Simulation time: 01 hr 21 min 14 sec)
Heartbeat CPU 0 instructions: 180000000 cycles: 49608626 heartbeat IPC: 3.582 cumulative IPC: 3.503 (Simulation time: 01 hr 25 min 46 sec)
Heartbeat CPU 0 instructions: 190000002 cycles: 52314925 heartbeat IPC: 3.695 cumulative IPC: 3.516 (Simulation time: 01 hr 30 min 12 sec)
Heartbeat CPU 0 instructions: 200000002 cycles: 55138402 heartbeat IPC: 3.542 cumulative IPC: 3.518 (Simulation time: 01 hr 34 min 23 sec)
Heartbeat CPU 0 instructions: 210000000 cycles: 58028965 heartbeat IPC: 3.46 cumulative IPC: 3.514 (Simulation time: 01 hr 38 min 28 sec)
Heartbeat CPU 0 instructions: 220000001 cycles: 60778012 heartbeat IPC: 3.638 cumulative IPC: 3.521 (Simulation time: 01 hr 42 min 19 sec)
Heartbeat CPU 0 instructions: 230000002 cycles: 63666549 heartbeat IPC: 3.462 cumulative IPC: 3.518 (Simulation time: 01 hr 46 min 15 sec)
Heartbeat CPU 0 instructions: 240000004 cycles: 66617585 heartbeat IPC: 3.389 cumulative IPC: 3.511 (Simulation time: 01 hr 50 min 14 sec)
Heartbeat CPU 0 instructions: 250000003 cycles: 69507544 heartbeat IPC: 3.46 cumulative IPC: 3.508 (Simulation time: 01 hr 54 min 06 sec)
Heartbeat CPU 0 instructions: 260000001 cycles: 72292848 heartbeat IPC: 3.59 cumulative IPC: 3.512 (Simulation time: 01 hr 58 min 03 sec)
Heartbeat CPU 0 instructions: 270000002 cycles: 78115853 heartbeat IPC: 1.717 cumulative IPC: 3.353 (Simulation time: 02 hr 03 min 36 sec)
Heartbeat CPU 0 instructions: 280000000 cycles: 87398658 heartbeat IPC: 1.077 cumulative IPC: 3.071 (Simulation time: 02 hr 11 min 08 sec)
Heartbeat CPU 0 instructions: 290000000 cycles: 94977324 heartbeat IPC: 1.319 cumulative IPC: 2.91 (Simulation time: 02 hr 17 min 49 sec)
Heartbeat CPU 0 instructions: 300000003 cycles: 100083310 heartbeat IPC: 1.958 cumulative IPC: 2.854 (Simulation time: 02 hr 23 min 21 sec)
Heartbeat CPU 0 instructions: 310000001 cycles: 108153268 heartbeat IPC: 1.239 cumulative IPC: 2.718 (Simulation time: 02 hr 30 min 33 sec)
Heartbeat CPU 0 instructions: 320000004 cycles: 111887208 heartbeat IPC: 2.678 cumulative IPC: 2.717 (Simulation time: 02 hr 35 min 10 sec)
Heartbeat CPU 0 instructions: 330000000 cycles: 115040997 heartbeat IPC: 3.171 cumulative IPC: 2.731 (Simulation time: 02 hr 39 min 20 sec)
Heartbeat CPU 0 instructions: 340000001 cycles: 118209276 heartbeat IPC: 3.156 cumulative IPC: 2.743 (Simulation time: 02 hr 43 min 28 sec)
Heartbeat CPU 0 instructions: 350000000 cycles: 121545657 heartbeat IPC: 2.997 cumulative IPC: 2.751 (Simulation time: 02 hr 47 min 48 sec)
Heartbeat CPU 0 instructions: 360000004 cycles: 124687842 heartbeat IPC: 3.183 cumulative IPC: 2.763 (Simulation time: 02 hr 51 min 57 sec)
Heartbeat CPU 0 instructions: 370000001 cycles: 127783842 heartbeat IPC: 3.23 cumulative IPC: 2.776 (Simulation time: 02 hr 56 min 05 sec)
Heartbeat CPU 0 instructions: 380000004 cycles: 130892818 heartbeat IPC: 3.216 cumulative IPC: 2.787 (Simulation time: 03 hr 00 min 15 sec)
Heartbeat CPU 0 instructions: 390000002 cycles: 134143095 heartbeat IPC: 3.077 cumulative IPC: 2.795 (Simulation time: 03 hr 04 min 34 sec)
Heartbeat CPU 0 instructions: 400000000 cycles: 137436441 heartbeat IPC: 3.036 cumulative IPC: 2.801 (Simulation time: 03 hr 08 min 53 sec)
Heartbeat CPU 0 instructions: 410000000 cycles: 143374058 heartbeat IPC: 1.684 cumulative IPC: 2.751 (Simulation time: 03 hr 14 min 42 sec)
Heartbeat CPU 0 instructions: 420000003 cycles: 152041756 heartbeat IPC: 1.154 cumulative IPC: 2.652 (Simulation time: 03 hr 22 min 09 sec)
Heartbeat CPU 0 instructions: 430000004 cycles: 157475425 heartbeat IPC: 1.84 cumulative IPC: 2.621 (Simulation time: 03 hr 27 min 55 sec)
Heartbeat CPU 0 instructions: 440000004 cycles: 162252928 heartbeat IPC: 2.093 cumulative IPC: 2.604 (Simulation time: 03 hr 33 min 19 sec)
Heartbeat CPU 0 instructions: 450000000 cycles: 166910412 heartbeat IPC: 2.147 cumulative IPC: 2.59 (Simulation time: 03 hr 38 min 34 sec)
Heartbeat CPU 0 instructions: 460000002 cycles: 174722006 heartbeat IPC: 1.28 cumulative IPC: 2.527 (Simulation time: 03 hr 45 min 33 sec)
Heartbeat CPU 0 instructions: 470000003 cycles: 181613868 heartbeat IPC: 1.451 cumulative IPC: 2.484 (Simulation time: 03 hr 52 min 01 sec)
Heartbeat CPU 0 instructions: 480000000 cycles: 185006764 heartbeat IPC: 2.947 cumulative IPC: 2.493 (Simulation time: 03 hr 56 min 24 sec)
Heartbeat CPU 0 instructions: 490000001 cycles: 188626609 heartbeat IPC: 2.763 cumulative IPC: 2.498 (Simulation time: 04 hr 00 min 52 sec)
Heartbeat CPU 0 instructions: 500000002 cycles: 192119665 heartbeat IPC: 2.863 cumulative IPC: 2.505 (Simulation time: 04 hr 05 min 17 sec)
Heartbeat CPU 0 instructions: 510000000 cycles: 195570220 heartbeat IPC: 2.898 cumulative IPC: 2.513 (Simulation time: 04 hr 09 min 42 sec)
Heartbeat CPU 0 instructions: 520000000 cycles: 199057490 heartbeat IPC: 2.868 cumulative IPC: 2.519 (Simulation time: 04 hr 14 min 03 sec)
Heartbeat CPU 0 instructions: 530000001 cycles: 207876602 heartbeat IPC: 1.134 cumulative IPC: 2.457 (Simulation time: 04 hr 21 min 29 sec)
Heartbeat CPU 0 instructions: 540000000 cycles: 216259840 heartbeat IPC: 1.193 cumulative IPC: 2.405 (Simulation time: 04 hr 28 min 49 sec)
Heartbeat CPU 0 instructions: 550000004 cycles: 225935184 heartbeat IPC: 1.034 cumulative IPC: 2.343 (Simulation time: 04 hr 37 min 00 sec)
Heartbeat CPU 0 instructions: 560000004 cycles: 229425038 heartbeat IPC: 2.865 cumulative IPC: 2.351 (Simulation time: 04 hr 41 min 22 sec)
Heartbeat CPU 0 instructions: 570000002 cycles: 232243919 heartbeat IPC: 3.548 cumulative IPC: 2.366 (Simulation time: 04 hr 45 min 24 sec)
Heartbeat CPU 0 instructions: 580000000 cycles: 235168011 heartbeat IPC: 3.42 cumulative IPC: 2.38 (Simulation time: 04 hr 49 min 26 sec)
Heartbeat CPU 0 instructions: 590000001 cycles: 238095550 heartbeat IPC: 3.416 cumulative IPC: 2.394 (Simulation time: 04 hr 53 min 24 sec)
Heartbeat CPU 0 instructions: 600000003 cycles: 240786477 heartbeat IPC: 3.716 cumulative IPC: 2.409 (Simulation time: 04 hr 57 min 20 sec)
Heartbeat CPU 0 instructions: 610000001 cycles: 243652419 heartbeat IPC: 3.489 cumulative IPC: 2.423 (Simulation time: 05 hr 01 min 22 sec)
Heartbeat CPU 0 instructions: 620000004 cycles: 246604909 heartbeat IPC: 3.387 cumulative IPC: 2.435 (Simulation time: 05 hr 05 min 30 sec)
Heartbeat CPU 0 instructions: 630000002 cycles: 249414822 heartbeat IPC: 3.559 cumulative IPC: 2.448 (Simulation time: 05 hr 09 min 29 sec)
Heartbeat CPU 0 instructions: 640000004 cycles: 252461247 heartbeat IPC: 3.283 cumulative IPC: 2.459 (Simulation time: 05 hr 13 min 36 sec)
Heartbeat CPU 0 instructions: 650000001 cycles: 255173853 heartbeat IPC: 3.686 cumulative IPC: 2.472 (Simulation time: 05 hr 17 min 31 sec)
Simulation finished CPU 0 instructions: 600000001 cycles: 242673792 cumulative IPC: 2.472 (Simulation time: 05 hr 17 min 31 sec)
Simulation complete CPU 0 instructions: 600000001 cycles: 242673792 cumulative IPC: 2.472 (Simulation time: 05 hr 17 min 31 sec)

ChampSim completed all CPUs

=== Simulation ===
CPU 0 runs traces/400.perlbench-50B.champsimtrace.xz
Region of Interest Statistics

CPU 0 cumulative IPC: 2.472 instructions: 600000001 cycles: 242673792
CPU 0 Branch Prediction Accuracy: 99.01% MPKI: 2.04 Average ROB Occupancy at Mispredict: 93.97
Branch type MPKI
BRANCH_DIRECT_JUMP: 0.0176
BRANCH_INDIRECT: 0.38
BRANCH_CONDITIONAL: 1.19
BRANCH_DIRECT_CALL: 0.0067
BRANCH_INDIRECT_CALL: 0.431
BRANCH_RETURN: 0.0161

LLC TOTAL        ACCESS:     565701 HIT:     250641 MISS:     315060
LLC LOAD         ACCESS:     376439 HIT:     122917 MISS:     253522
LLC RFO          ACCESS:      32783 HIT:      12802 MISS:      19981
LLC PREFETCH     ACCESS:      54421 HIT:      25904 MISS:      28517
LLC WRITE        ACCESS:      83813 HIT:      82816 MISS:        997
LLC TRANSLATION  ACCESS:      18245 HIT:       6202 MISS:      12043
LLC PREFETCH REQUESTED:      54421 ISSUED:      54421 USEFUL:      17885 USELESS:       6621
LLC AVERAGE MISS LATENCY: 616.8 cycles
cpu0_DTLB TOTAL        ACCESS:  133178329 HIT:  131829037 MISS:    1349292
cpu0_DTLB LOAD         ACCESS:  133178329 HIT:  131829037 MISS:    1349292
cpu0_DTLB RFO          ACCESS:          0 HIT:          0 MISS:          0
cpu0_DTLB PREFETCH     ACCESS:          0 HIT:          0 MISS:          0
cpu0_DTLB WRITE        ACCESS:          0 HIT:          0 MISS:          0
cpu0_DTLB TRANSLATION  ACCESS:          0 HIT:          0 MISS:          0
cpu0_DTLB PREFETCH REQUESTED:          0 ISSUED:          0 USEFUL:          0 USELESS:          0
cpu0_DTLB AVERAGE MISS LATENCY: 11.77 cycles
cpu0_ITLB TOTAL        ACCESS:    8999388 HIT:    8788999 MISS:     210389
cpu0_ITLB LOAD         ACCESS:    8999388 HIT:    8788999 MISS:     210389
cpu0_ITLB RFO          ACCESS:          0 HIT:          0 MISS:          0
cpu0_ITLB PREFETCH     ACCESS:          0 HIT:          0 MISS:          0
cpu0_ITLB WRITE        ACCESS:          0 HIT:          0 MISS:          0
cpu0_ITLB TRANSLATION  ACCESS:          0 HIT:          0 MISS:          0
cpu0_ITLB PREFETCH REQUESTED:          0 ISSUED:          0 USEFUL:          0 USELESS:          0
cpu0_ITLB AVERAGE MISS LATENCY: 3.03 cycles
cpu0_L1D TOTAL        ACCESS:  178249102 HIT:  175314263 MISS:    2934839
cpu0_L1D LOAD         ACCESS:   92730844 HIT:   90322165 MISS:    2408679
cpu0_L1D RFO          ACCESS:          0 HIT:          0 MISS:          0
cpu0_L1D PREFETCH     ACCESS:          0 HIT:          0 MISS:          0
cpu0_L1D WRITE        ACCESS:   85489723 HIT:   84990096 MISS:     499627
cpu0_L1D TRANSLATION  ACCESS:      28535 HIT:       2002 MISS:      26533
cpu0_L1D PREFETCH REQUESTED:          0 ISSUED:          0 USEFUL:          0 USELESS:          0
cpu0_L1D AVERAGE MISS LATENCY: 61.71 cycles
cpu0_L1I TOTAL        ACCESS:   10518529 HIT:    8617591 MISS:    1900938
cpu0_L1I LOAD         ACCESS:   10518529 HIT:    8617591 MISS:    1900938
cpu0_L1I RFO          ACCESS:          0 HIT:          0 MISS:          0
cpu0_L1I PREFETCH     ACCESS:          0 HIT:          0 MISS:          0
cpu0_L1I WRITE        ACCESS:          0 HIT:          0 MISS:          0
cpu0_L1I TRANSLATION  ACCESS:          0 HIT:          0 MISS:          0
cpu0_L1I PREFETCH REQUESTED:          0 ISSUED:          0 USEFUL:          0 USELESS:          0
cpu0_L1I AVERAGE MISS LATENCY: 9.62 cycles
cpu0_L2C TOTAL        ACCESS:    3236132 HIT:    2807738 MISS:     428394
cpu0_L2C LOAD         ACCESS:    2709168 HIT:    2332729 MISS:     376439
cpu0_L2C RFO          ACCESS:     135528 HIT:     102745 MISS:      32783
cpu0_L2C PREFETCH     ACCESS:          0 HIT:          0 MISS:          0
cpu0_L2C WRITE        ACCESS:     364987 HIT:     364060 MISS:        927
cpu0_L2C TRANSLATION  ACCESS:      26449 HIT:       8204 MISS:      18245
cpu0_L2C PREFETCH REQUESTED:          0 ISSUED:          0 USEFUL:          0 USELESS:          0
cpu0_L2C AVERAGE MISS LATENCY: 430 cycles
cpu0_STLB TOTAL        ACCESS:    1009677 HIT:     982986 MISS:      26691
cpu0_STLB LOAD         ACCESS:    1009677 HIT:     982986 MISS:      26691
cpu0_STLB RFO          ACCESS:          0 HIT:          0 MISS:          0
cpu0_STLB PREFETCH     ACCESS:          0 HIT:          0 MISS:          0
cpu0_STLB WRITE        ACCESS:          0 HIT:          0 MISS:          0
cpu0_STLB TRANSLATION  ACCESS:          0 HIT:          0 MISS:          0
cpu0_STLB PREFETCH REQUESTED:          0 ISSUED:          0 USEFUL:          0 USELESS:          0
cpu0_STLB AVERAGE MISS LATENCY: 393.5 cycles

DRAM Statistics

Channel 0 RQ ROW_BUFFER_HIT:      66778
  ROW_BUFFER_MISS:     241614
 AVG DBUS CONGESTED CYCLE: 3.843
WQ ROW_BUFFER_HIT: Channel 0 
  ROW_BUFFER_MISS:       5819
  FULL:      38566
