WARNING: physical memory size is smaller than virtual memory size.

*** ChampSim Multicore Out-of-Order Simulator ***
Warmup Instructions: 50000000
Simulation Instructions: 600000000
Number of CPUs: 1
Page size: 4096

Initialize SIGNATURE TABLE
ST_SET: 1
ST_WAY: 256
ST_TAG_BIT: 16
ST_TAG_MASK: ffff

Initialize PATTERN TABLE
PT_SET: 512
PT_WAY: 4
SIG_DELTA_BIT: 7
C_SIG_BIT: 4
C_DELTA_BIT: 4

Initialize PREFETCH FILTER
FILTER_SET: 1024
Off-chip DRAM Size: 4 GiB Channels: 1 Width: 64-bit Data Race: 3200 MT/s
Heartbeat CPU 0 instructions: 10000000 cycles: 2500061 heartbeat IPC: 4 cumulative IPC: 4 (Simulation time: 00 hr 03 min 33 sec)
Heartbeat CPU 0 instructions: 20000000 cycles: 5000061 heartbeat IPC: 4 cumulative IPC: 4 (Simulation time: 00 hr 07 min 05 sec)
Heartbeat CPU 0 instructions: 30000000 cycles: 7500061 heartbeat IPC: 4 cumulative IPC: 4 (Simulation time: 00 hr 10 min 36 sec)
Heartbeat CPU 0 instructions: 40000000 cycles: 10000061 heartbeat IPC: 4 cumulative IPC: 4 (Simulation time: 00 hr 14 min 10 sec)
Heartbeat CPU 0 instructions: 50000000 cycles: 12500061 heartbeat IPC: 4 cumulative IPC: 4 (Simulation time: 00 hr 17 min 49 sec)
Warmup finished CPU 0 instructions: 50000000 cycles: 12500062 cumulative IPC: 4 (Simulation time: 00 hr 17 min 49 sec)
Warmup complete CPU 0 instructions: 50000000 cycles: 12500062 cumulative IPC: 4 (Simulation time: 00 hr 17 min 49 sec)
Heartbeat CPU 0 instructions: 60000002 cycles: 16259832 heartbeat IPC: 2.66 cumulative IPC: 2.66 (Simulation time: 00 hr 22 min 39 sec)
Heartbeat CPU 0 instructions: 70000003 cycles: 20422433 heartbeat IPC: 2.402 cumulative IPC: 2.524 (Simulation time: 00 hr 27 min 34 sec)
Heartbeat CPU 0 instructions: 80000003 cycles: 24631436 heartbeat IPC: 2.376 cumulative IPC: 2.473 (Simulation time: 00 hr 32 min 28 sec)
Heartbeat CPU 0 instructions: 90000000 cycles: 27870431 heartbeat IPC: 3.087 cumulative IPC: 2.602 (Simulation time: 00 hr 36 min 55 sec)
Heartbeat CPU 0 instructions: 100000003 cycles: 31885605 heartbeat IPC: 2.491 cumulative IPC: 2.579 (Simulation time: 00 hr 41 min 41 sec)
Heartbeat CPU 0 instructions: 110000002 cycles: 35863223 heartbeat IPC: 2.514 cumulative IPC: 2.568 (Simulation time: 00 hr 46 min 29 sec)
Heartbeat CPU 0 instructions: 120000001 cycles: 39426435 heartbeat IPC: 2.806 cumulative IPC: 2.6 (Simulation time: 00 hr 51 min 04 sec)
Heartbeat CPU 0 instructions: 130000003 cycles: 43084206 heartbeat IPC: 2.734 cumulative IPC: 2.616 (Simulation time: 00 hr 55 min 42 sec)
Heartbeat CPU 0 instructions: 140000002 cycles: 47044017 heartbeat IPC: 2.525 cumulative IPC: 2.605 (Simulation time: 01 hr 00 min 28 sec)
Heartbeat CPU 0 instructions: 150000001 cycles: 50942502 heartbeat IPC: 2.565 cumulative IPC: 2.601 (Simulation time: 01 hr 05 min 15 sec)
Heartbeat CPU 0 instructions: 160000000 cycles: 54592683 heartbeat IPC: 2.74 cumulative IPC: 2.613 (Simulation time: 01 hr 09 min 52 sec)
Heartbeat CPU 0 instructions: 170000001 cycles: 58557845 heartbeat IPC: 2.522 cumulative IPC: 2.605 (Simulation time: 01 hr 14 min 39 sec)
Heartbeat CPU 0 instructions: 180000001 cycles: 61989524 heartbeat IPC: 2.914 cumulative IPC: 2.627 (Simulation time: 01 hr 19 min 21 sec)
Heartbeat CPU 0 instructions: 190000002 cycles: 65472486 heartbeat IPC: 2.871 cumulative IPC: 2.643 (Simulation time: 01 hr 23 min 56 sec)
Heartbeat CPU 0 instructions: 200000002 cycles: 69210378 heartbeat IPC: 2.675 cumulative IPC: 2.645 (Simulation time: 01 hr 28 min 39 sec)
Heartbeat CPU 0 instructions: 210000000 cycles: 72756875 heartbeat IPC: 2.82 cumulative IPC: 2.655 (Simulation time: 01 hr 33 min 11 sec)
Heartbeat CPU 0 instructions: 220000001 cycles: 76460926 heartbeat IPC: 2.7 cumulative IPC: 2.658 (Simulation time: 01 hr 37 min 44 sec)
Heartbeat CPU 0 instructions: 230000002 cycles: 80162420 heartbeat IPC: 2.702 cumulative IPC: 2.66 (Simulation time: 01 hr 42 min 24 sec)
Heartbeat CPU 0 instructions: 240000004 cycles: 84161500 heartbeat IPC: 2.501 cumulative IPC: 2.651 (Simulation time: 01 hr 47 min 14 sec)
Heartbeat CPU 0 instructions: 250000003 cycles: 88494103 heartbeat IPC: 2.308 cumulative IPC: 2.632 (Simulation time: 01 hr 52 min 11 sec)
Heartbeat CPU 0 instructions: 260000001 cycles: 92144077 heartbeat IPC: 2.74 cumulative IPC: 2.637 (Simulation time: 01 hr 56 min 58 sec)
Heartbeat CPU 0 instructions: 270000003 cycles: 99611374 heartbeat IPC: 1.339 cumulative IPC: 2.526 (Simulation time: 02 hr 03 min 58 sec)
Heartbeat CPU 0 instructions: 280000000 cycles: 112316628 heartbeat IPC: 0.7871 cumulative IPC: 2.304 (Simulation time: 02 hr 14 min 28 sec)
Heartbeat CPU 0 instructions: 290000000 cycles: 124901328 heartbeat IPC: 0.7946 cumulative IPC: 2.135 (Simulation time: 02 hr 25 min 02 sec)
Heartbeat CPU 0 instructions: 300000000 cycles: 133447813 heartbeat IPC: 1.17 cumulative IPC: 2.067 (Simulation time: 02 hr 33 min 05 sec)
Heartbeat CPU 0 instructions: 310000004 cycles: 146412960 heartbeat IPC: 0.7713 cumulative IPC: 1.942 (Simulation time: 02 hr 44 min 00 sec)
Heartbeat CPU 0 instructions: 320000004 cycles: 152099397 heartbeat IPC: 1.759 cumulative IPC: 1.934 (Simulation time: 02 hr 50 min 20 sec)
Heartbeat CPU 0 instructions: 330000000 cycles: 156147632 heartbeat IPC: 2.47 cumulative IPC: 1.949 (Simulation time: 02 hr 55 min 18 sec)
Heartbeat CPU 0 instructions: 340000001 cycles: 160338370 heartbeat IPC: 2.386 cumulative IPC: 1.962 (Simulation time: 03 hr 00 min 18 sec)
Heartbeat CPU 0 instructions: 350000004 cycles: 164672258 heartbeat IPC: 2.307 cumulative IPC: 1.971 (Simulation time: 03 hr 05 min 27 sec)
Heartbeat CPU 0 instructions: 360000003 cycles: 168596195 heartbeat IPC: 2.548 cumulative IPC: 1.986 (Simulation time: 03 hr 10 min 22 sec)
Heartbeat CPU 0 instructions: 370000001 cycles: 172355853 heartbeat IPC: 2.66 cumulative IPC: 2.002 (Simulation time: 03 hr 15 min 08 sec)
Heartbeat CPU 0 instructions: 380000004 cycles: 175950803 heartbeat IPC: 2.782 cumulative IPC: 2.019 (Simulation time: 03 hr 19 min 50 sec)
Heartbeat CPU 0 instructions: 390000002 cycles: 179682150 heartbeat IPC: 2.68 cumulative IPC: 2.034 (Simulation time: 03 hr 24 min 39 sec)
Heartbeat CPU 0 instructions: 400000000 cycles: 183644635 heartbeat IPC: 2.524 cumulative IPC: 2.045 (Simulation time: 03 hr 29 min 32 sec)
Heartbeat CPU 0 instructions: 410000000 cycles: 191050708 heartbeat IPC: 1.35 cumulative IPC: 2.016 (Simulation time: 03 hr 36 min 38 sec)
Heartbeat CPU 0 instructions: 420000001 cycles: 203508966 heartbeat IPC: 0.8027 cumulative IPC: 1.937 (Simulation time: 03 hr 47 min 16 sec)
Heartbeat CPU 0 instructions: 430000002 cycles: 212086674 heartbeat IPC: 1.166 cumulative IPC: 1.904 (Simulation time: 03 hr 55 min 25 sec)
Heartbeat CPU 0 instructions: 440000002 cycles: 220854335 heartbeat IPC: 1.141 cumulative IPC: 1.872 (Simulation time: 04 hr 03 min 35 sec)
Heartbeat CPU 0 instructions: 450000000 cycles: 229310029 heartbeat IPC: 1.183 cumulative IPC: 1.845 (Simulation time: 04 hr 11 min 28 sec)
Heartbeat CPU 0 instructions: 460000002 cycles: 243418112 heartbeat IPC: 0.7088 cumulative IPC: 1.776 (Simulation time: 04 hr 23 min 12 sec)
Heartbeat CPU 0 instructions: 470000003 cycles: 254721861 heartbeat IPC: 0.8847 cumulative IPC: 1.734 (Simulation time: 04 hr 32 min 48 sec)
Heartbeat CPU 0 instructions: 480000003 cycles: 259105475 heartbeat IPC: 2.281 cumulative IPC: 1.744 (Simulation time: 04 hr 37 min 55 sec)
Heartbeat CPU 0 instructions: 490000001 cycles: 263534750 heartbeat IPC: 2.258 cumulative IPC: 1.753 (Simulation time: 04 hr 43 min 04 sec)
Heartbeat CPU 0 instructions: 500000002 cycles: 267602021 heartbeat IPC: 2.459 cumulative IPC: 1.764 (Simulation time: 04 hr 47 min 57 sec)
Heartbeat CPU 0 instructions: 510000000 cycles: 271443988 heartbeat IPC: 2.603 cumulative IPC: 1.776 (Simulation time: 04 hr 52 min 50 sec)
Heartbeat CPU 0 instructions: 520000000 cycles: 275298451 heartbeat IPC: 2.594 cumulative IPC: 1.788 (Simulation time: 04 hr 57 min 35 sec)
Heartbeat CPU 0 instructions: 530000001 cycles: 287185823 heartbeat IPC: 0.8412 cumulative IPC: 1.747 (Simulation time: 05 hr 07 min 33 sec)
Heartbeat CPU 0 instructions: 540000000 cycles: 300397298 heartbeat IPC: 0.7569 cumulative IPC: 1.702 (Simulation time: 05 hr 18 min 43 sec)
Heartbeat CPU 0 instructions: 550000002 cycles: 315370792 heartbeat IPC: 0.6678 cumulative IPC: 1.651 (Simulation time: 05 hr 30 min 43 sec)
Heartbeat CPU 0 instructions: 560000004 cycles: 319951424 heartbeat IPC: 2.183 cumulative IPC: 1.659 (Simulation time: 05 hr 35 min 55 sec)
Heartbeat CPU 0 instructions: 570000001 cycles: 323100726 heartbeat IPC: 3.175 cumulative IPC: 1.674 (Simulation time: 05 hr 40 min 22 sec)
Heartbeat CPU 0 instructions: 580000003 cycles: 326606133 heartbeat IPC: 2.853 cumulative IPC: 1.687 (Simulation time: 05 hr 44 min 57 sec)
Heartbeat CPU 0 instructions: 590000001 cycles: 330194721 heartbeat IPC: 2.787 cumulative IPC: 1.7 (Simulation time: 05 hr 49 min 36 sec)
Heartbeat CPU 0 instructions: 600000003 cycles: 333188874 heartbeat IPC: 3.34 cumulative IPC: 1.715 (Simulation time: 05 hr 54 min 00 sec)
Heartbeat CPU 0 instructions: 610000001 cycles: 336699317 heartbeat IPC: 2.849 cumulative IPC: 1.727 (Simulation time: 05 hr 58 min 47 sec)
Heartbeat CPU 0 instructions: 620000000 cycles: 340241683 heartbeat IPC: 2.823 cumulative IPC: 1.739 (Simulation time: 06 hr 03 min 35 sec)
Heartbeat CPU 0 instructions: 630000002 cycles: 343440211 heartbeat IPC: 3.126 cumulative IPC: 1.753 (Simulation time: 06 hr 08 min 05 sec)
Heartbeat CPU 0 instructions: 640000004 cycles: 347174488 heartbeat IPC: 2.678 cumulative IPC: 1.763 (Simulation time: 06 hr 12 min 49 sec)
Heartbeat CPU 0 instructions: 650000001 cycles: 350571629 heartbeat IPC: 2.944 cumulative IPC: 1.775 (Simulation time: 06 hr 17 min 19 sec)
Simulation finished CPU 0 instructions: 600000001 cycles: 338071568 cumulative IPC: 1.775 (Simulation time: 06 hr 17 min 19 sec)
Simulation complete CPU 0 instructions: 600000001 cycles: 338071568 cumulative IPC: 1.775 (Simulation time: 06 hr 17 min 19 sec)

ChampSim completed all CPUs

=== Simulation ===
CPU 0 runs traces/400.perlbench-50B.champsimtrace.xz
Region of Interest Statistics

CPU 0 cumulative IPC: 1.775 instructions: 600000001 cycles: 338071568
CPU 0 Branch Prediction Accuracy: 96.09% MPKI: 8.064 Average ROB Occupancy at Mispredict: 40.55
Branch type MPKI
BRANCH_DIRECT_JUMP: 0.0176
BRANCH_INDIRECT: 0.38
BRANCH_CONDITIONAL: 7.21
BRANCH_DIRECT_CALL: 0.0067
BRANCH_INDIRECT_CALL: 0.431
BRANCH_RETURN: 0.0161

LLC TOTAL        ACCESS:     881295 HIT:     260738 MISS:     620557
LLC LOAD         ACCESS:     376817 HIT:     111813 MISS:     265004
LLC RFO          ACCESS:      32980 HIT:      10892 MISS:      22088
LLC PREFETCH     ACCESS:     368605 HIT:      96983 MISS:     271622
LLC WRITE        ACCESS:      84622 HIT:      39193 MISS:      45429
LLC TRANSLATION  ACCESS:      18271 HIT:       1857 MISS:      16414
LLC PREFETCH REQUESTED:     368605 ISSUED:     368605 USEFUL:       2048 USELESS:        241
LLC AVERAGE MISS LATENCY: 267.4 cycles
cpu0_DTLB TOTAL        ACCESS:  146239737 HIT:  144945892 MISS:    1293845
cpu0_DTLB LOAD         ACCESS:  146239737 HIT:  144945892 MISS:    1293845
cpu0_DTLB RFO          ACCESS:          0 HIT:          0 MISS:          0
cpu0_DTLB PREFETCH     ACCESS:          0 HIT:          0 MISS:          0
cpu0_DTLB WRITE        ACCESS:          0 HIT:          0 MISS:          0
cpu0_DTLB TRANSLATION  ACCESS:          0 HIT:          0 MISS:          0
cpu0_DTLB PREFETCH REQUESTED:          0 ISSUED:          0 USEFUL:          0 USELESS:          0
cpu0_DTLB AVERAGE MISS LATENCY: 14.12 cycles
cpu0_ITLB TOTAL        ACCESS:    8993106 HIT:    8820503 MISS:     172603
cpu0_ITLB LOAD         ACCESS:    8993106 HIT:    8820503 MISS:     172603
cpu0_ITLB RFO          ACCESS:          0 HIT:          0 MISS:          0
cpu0_ITLB PREFETCH     ACCESS:          0 HIT:          0 MISS:          0
cpu0_ITLB WRITE        ACCESS:          0 HIT:          0 MISS:          0
cpu0_ITLB TRANSLATION  ACCESS:          0 HIT:          0 MISS:          0
cpu0_ITLB PREFETCH REQUESTED:          0 ISSUED:          0 USEFUL:          0 USELESS:          0
cpu0_ITLB AVERAGE MISS LATENCY: 4.321 cycles
cpu0_L1D TOTAL        ACCESS:  192992173 HIT:  190183498 MISS:    2808675
cpu0_L1D LOAD         ACCESS:  107174803 HIT:  104864962 MISS:    2309841
cpu0_L1D RFO          ACCESS:          0 HIT:          0 MISS:          0
cpu0_L1D PREFETCH     ACCESS:          0 HIT:          0 MISS:          0
cpu0_L1D WRITE        ACCESS:   85788833 HIT:   85316519 MISS:     472314
cpu0_L1D TRANSLATION  ACCESS:      28537 HIT:       2017 MISS:      26520
cpu0_L1D PREFETCH REQUESTED:          0 ISSUED:          0 USEFUL:          0 USELESS:          0
cpu0_L1D AVERAGE MISS LATENCY: 61.29 cycles
cpu0_L1I TOTAL        ACCESS:   10427358 HIT:    8712099 MISS:    1715259
cpu0_L1I LOAD         ACCESS:   10427358 HIT:    8712099 MISS:    1715259
cpu0_L1I RFO          ACCESS:          0 HIT:          0 MISS:          0
cpu0_L1I PREFETCH     ACCESS:          0 HIT:          0 MISS:          0
cpu0_L1I WRITE        ACCESS:          0 HIT:          0 MISS:          0
cpu0_L1I TRANSLATION  ACCESS:          0 HIT:          0 MISS:          0
cpu0_L1I PREFETCH REQUESTED:          0 ISSUED:          0 USEFUL:          0 USELESS:          0
cpu0_L1I AVERAGE MISS LATENCY: 13.31 cycles
cpu0_L2C TOTAL        ACCESS:    3232229 HIT:    2803140 MISS:     429089
cpu0_L2C LOAD         ACCESS:    2710497 HIT:    2333680 MISS:     376817
cpu0_L2C RFO          ACCESS:     132952 HIT:      99972 MISS:      32980
cpu0_L2C PREFETCH     ACCESS:          0 HIT:          0 MISS:          0
cpu0_L2C WRITE        ACCESS:     362318 HIT:     361297 MISS:       1021
cpu0_L2C TRANSLATION  ACCESS:      26462 HIT:       8191 MISS:      18271
cpu0_L2C PREFETCH REQUESTED:          0 ISSUED:          0 USEFUL:          0 USELESS:          0
cpu0_L2C AVERAGE MISS LATENCY: 404.1 cycles
cpu0_STLB TOTAL        ACCESS:    1009375 HIT:     982677 MISS:      26698
cpu0_STLB LOAD         ACCESS:    1009375 HIT:     982677 MISS:      26698
cpu0_STLB RFO          ACCESS:          0 HIT:          0 MISS:          0
cpu0_STLB PREFETCH     ACCESS:          0 HIT:          0 MISS:          0
cpu0_STLB WRITE        ACCESS:          0 HIT:          0 MISS:          0
cpu0_STLB TRANSLATION  ACCESS:          0 HIT:          0 MISS:          0
cpu0_STLB PREFETCH REQUESTED:          0 ISSUED:          0 USEFUL:          0 USELESS:          0
cpu0_STLB AVERAGE MISS LATENCY: 465.3 cycles

DRAM Statistics

Channel 0 RQ ROW_BUFFER_HIT:      83710
  ROW_BUFFER_MISS:     347329
 AVG DBUS CONGESTED CYCLE: 3.846
WQ ROW_BUFFER_HIT: Channel 0 
  ROW_BUFFER_MISS:       9257
  FULL:      37389
