WARNING: physical memory size is smaller than virtual memory size.

*** ChampSim Multicore Out-of-Order Simulator ***
Warmup Instructions: 50000000
Simulation Instructions: 600000000
Number of CPUs: 1
Page size: 4096

Off-chip DRAM Size: 4 GiB Channels: 1 Width: 64-bit Data Race: 3200 MT/s
Heartbeat CPU 0 instructions: 10000000 cycles: 2500061 heartbeat IPC: 4 cumulative IPC: 4 (Simulation time: 00 hr 03 min 19 sec)
Heartbeat CPU 0 instructions: 20000000 cycles: 5000061 heartbeat IPC: 4 cumulative IPC: 4 (Simulation time: 00 hr 06 min 29 sec)
Heartbeat CPU 0 instructions: 30000000 cycles: 7500061 heartbeat IPC: 4 cumulative IPC: 4 (Simulation time: 00 hr 09 min 37 sec)
Heartbeat CPU 0 instructions: 40000000 cycles: 10000061 heartbeat IPC: 4 cumulative IPC: 4 (Simulation time: 00 hr 12 min 52 sec)
Heartbeat CPU 0 instructions: 50000000 cycles: 12500061 heartbeat IPC: 4 cumulative IPC: 4 (Simulation time: 00 hr 16 min 15 sec)
Warmup finished CPU 0 instructions: 50000000 cycles: 12500062 cumulative IPC: 4 (Simulation time: 00 hr 16 min 15 sec)
Warmup complete CPU 0 instructions: 50000000 cycles: 12500062 cumulative IPC: 4 (Simulation time: 00 hr 16 min 15 sec)
Heartbeat CPU 0 instructions: 60000002 cycles: 16445999 heartbeat IPC: 2.534 cumulative IPC: 2.534 (Simulation time: 00 hr 20 min 48 sec)
Heartbeat CPU 0 instructions: 70000003 cycles: 20769163 heartbeat IPC: 2.313 cumulative IPC: 2.419 (Simulation time: 00 hr 25 min 34 sec)
Heartbeat CPU 0 instructions: 80000003 cycles: 25245416 heartbeat IPC: 2.234 cumulative IPC: 2.354 (Simulation time: 00 hr 30 min 17 sec)
Heartbeat CPU 0 instructions: 90000000 cycles: 28937578 heartbeat IPC: 2.708 cumulative IPC: 2.433 (Simulation time: 00 hr 34 min 38 sec)
Heartbeat CPU 0 instructions: 100000003 cycles: 32840854 heartbeat IPC: 2.562 cumulative IPC: 2.458 (Simulation time: 00 hr 39 min 14 sec)
Heartbeat CPU 0 instructions: 110000002 cycles: 36946605 heartbeat IPC: 2.436 cumulative IPC: 2.454 (Simulation time: 00 hr 43 min 43 sec)
Heartbeat CPU 0 instructions: 120000001 cycles: 40665239 heartbeat IPC: 2.689 cumulative IPC: 2.485 (Simulation time: 00 hr 47 min 59 sec)
Heartbeat CPU 0 instructions: 130000003 cycles: 44441520 heartbeat IPC: 2.648 cumulative IPC: 2.505 (Simulation time: 00 hr 52 min 07 sec)
Heartbeat CPU 0 instructions: 140000002 cycles: 48576040 heartbeat IPC: 2.419 cumulative IPC: 2.495 (Simulation time: 00 hr 56 min 04 sec)
Heartbeat CPU 0 instructions: 150000001 cycles: 52629234 heartbeat IPC: 2.467 cumulative IPC: 2.492 (Simulation time: 00 hr 59 min 46 sec)
Heartbeat CPU 0 instructions: 160000000 cycles: 56288207 heartbeat IPC: 2.733 cumulative IPC: 2.512 (Simulation time: 01 hr 03 min 15 sec)
Heartbeat CPU 0 instructions: 170000001 cycles: 60468425 heartbeat IPC: 2.392 cumulative IPC: 2.502 (Simulation time: 01 hr 06 min 48 sec)
Heartbeat CPU 0 instructions: 180000001 cycles: 63933063 heartbeat IPC: 2.886 cumulative IPC: 2.528 (Simulation time: 01 hr 09 min 58 sec)
Heartbeat CPU 0 instructions: 190000002 cycles: 67523846 heartbeat IPC: 2.785 cumulative IPC: 2.544 (Simulation time: 01 hr 13 min 08 sec)
Heartbeat CPU 0 instructions: 200000002 cycles: 71308535 heartbeat IPC: 2.642 cumulative IPC: 2.551 (Simulation time: 01 hr 16 min 17 sec)
Heartbeat CPU 0 instructions: 210000000 cycles: 74950208 heartbeat IPC: 2.746 cumulative IPC: 2.562 (Simulation time: 01 hr 19 min 10 sec)
Heartbeat CPU 0 instructions: 220000001 cycles: 78823696 heartbeat IPC: 2.582 cumulative IPC: 2.563 (Simulation time: 01 hr 22 min 04 sec)
Heartbeat CPU 0 instructions: 230000002 cycles: 82666997 heartbeat IPC: 2.602 cumulative IPC: 2.565 (Simulation time: 01 hr 25 min 00 sec)
Heartbeat CPU 0 instructions: 240000001 cycles: 86878248 heartbeat IPC: 2.375 cumulative IPC: 2.555 (Simulation time: 01 hr 28 min 07 sec)
Heartbeat CPU 0 instructions: 250000003 cycles: 91450749 heartbeat IPC: 2.187 cumulative IPC: 2.533 (Simulation time: 01 hr 31 min 13 sec)
Heartbeat CPU 0 instructions: 260000000 cycles: 95247652 heartbeat IPC: 2.634 cumulative IPC: 2.538 (Simulation time: 01 hr 34 min 06 sec)
Heartbeat CPU 0 instructions: 270000003 cycles: 102428507 heartbeat IPC: 1.393 cumulative IPC: 2.446 (Simulation time: 01 hr 38 min 24 sec)
Heartbeat CPU 0 instructions: 280000000 cycles: 114830652 heartbeat IPC: 0.8063 cumulative IPC: 2.248 (Simulation time: 01 hr 45 min 00 sec)
Heartbeat CPU 0 instructions: 290000000 cycles: 126989623 heartbeat IPC: 0.8224 cumulative IPC: 2.096 (Simulation time: 01 hr 51 min 21 sec)
Heartbeat CPU 0 instructions: 300000003 cycles: 134895070 heartbeat IPC: 1.265 cumulative IPC: 2.043 (Simulation time: 01 hr 56 min 03 sec)
Heartbeat CPU 0 instructions: 310000004 cycles: 147070026 heartbeat IPC: 0.8214 cumulative IPC: 1.932 (Simulation time: 02 hr 02 min 39 sec)
Heartbeat CPU 0 instructions: 320000004 cycles: 152450859 heartbeat IPC: 1.858 cumulative IPC: 1.929 (Simulation time: 02 hr 06 min 21 sec)
Heartbeat CPU 0 instructions: 330000000 cycles: 156515065 heartbeat IPC: 2.461 cumulative IPC: 1.944 (Simulation time: 02 hr 09 min 29 sec)
Heartbeat CPU 0 instructions: 340000001 cycles: 160591480 heartbeat IPC: 2.453 cumulative IPC: 1.958 (Simulation time: 02 hr 12 min 34 sec)
Heartbeat CPU 0 instructions: 350000004 cycles: 164606172 heartbeat IPC: 2.491 cumulative IPC: 1.972 (Simulation time: 02 hr 15 min 34 sec)
Heartbeat CPU 0 instructions: 360000003 cycles: 168288732 heartbeat IPC: 2.716 cumulative IPC: 1.99 (Simulation time: 02 hr 18 min 33 sec)
Heartbeat CPU 0 instructions: 370000001 cycles: 171937370 heartbeat IPC: 2.741 cumulative IPC: 2.007 (Simulation time: 02 hr 21 min 24 sec)
Heartbeat CPU 0 instructions: 380000004 cycles: 175467312 heartbeat IPC: 2.833 cumulative IPC: 2.025 (Simulation time: 02 hr 24 min 17 sec)
Heartbeat CPU 0 instructions: 390000002 cycles: 179199737 heartbeat IPC: 2.679 cumulative IPC: 2.04 (Simulation time: 02 hr 27 min 16 sec)
Heartbeat CPU 0 instructions: 400000000 cycles: 183092426 heartbeat IPC: 2.569 cumulative IPC: 2.052 (Simulation time: 02 hr 30 min 18 sec)
Heartbeat CPU 0 instructions: 410000000 cycles: 190332626 heartbeat IPC: 1.381 cumulative IPC: 2.024 (Simulation time: 02 hr 34 min 40 sec)
Heartbeat CPU 0 instructions: 420000003 cycles: 202742742 heartbeat IPC: 0.8058 cumulative IPC: 1.945 (Simulation time: 02 hr 41 min 13 sec)
Heartbeat CPU 0 instructions: 430000000 cycles: 210892345 heartbeat IPC: 1.227 cumulative IPC: 1.915 (Simulation time: 02 hr 46 min 08 sec)
Heartbeat CPU 0 instructions: 440000004 cycles: 219449791 heartbeat IPC: 1.169 cumulative IPC: 1.885 (Simulation time: 02 hr 51 min 12 sec)
Heartbeat CPU 0 instructions: 450000000 cycles: 227461688 heartbeat IPC: 1.248 cumulative IPC: 1.861 (Simulation time: 02 hr 56 min 03 sec)
Heartbeat CPU 0 instructions: 460000002 cycles: 241962935 heartbeat IPC: 0.6896 cumulative IPC: 1.787 (Simulation time: 03 hr 03 min 17 sec)
Heartbeat CPU 0 instructions: 470000003 cycles: 252743528 heartbeat IPC: 0.9276 cumulative IPC: 1.748 (Simulation time: 03 hr 09 min 11 sec)
Heartbeat CPU 0 instructions: 480000003 cycles: 257095734 heartbeat IPC: 2.298 cumulative IPC: 1.758 (Simulation time: 03 hr 12 min 23 sec)
Heartbeat CPU 0 instructions: 490000001 cycles: 261027815 heartbeat IPC: 2.543 cumulative IPC: 1.77 (Simulation time: 03 hr 15 min 27 sec)
Heartbeat CPU 0 instructions: 500000002 cycles: 264824976 heartbeat IPC: 2.634 cumulative IPC: 1.783 (Simulation time: 03 hr 18 min 28 sec)
Heartbeat CPU 0 instructions: 510000000 cycles: 268343978 heartbeat IPC: 2.842 cumulative IPC: 1.798 (Simulation time: 03 hr 21 min 20 sec)
Heartbeat CPU 0 instructions: 520000000 cycles: 272027484 heartbeat IPC: 2.715 cumulative IPC: 1.811 (Simulation time: 03 hr 24 min 16 sec)
Heartbeat CPU 0 instructions: 530000001 cycles: 283714783 heartbeat IPC: 0.8556 cumulative IPC: 1.77 (Simulation time: 03 hr 30 min 32 sec)
Heartbeat CPU 0 instructions: 540000000 cycles: 297134024 heartbeat IPC: 0.7452 cumulative IPC: 1.722 (Simulation time: 03 hr 37 min 31 sec)
Heartbeat CPU 0 instructions: 550000004 cycles: 312280895 heartbeat IPC: 0.6602 cumulative IPC: 1.668 (Simulation time: 03 hr 45 min 17 sec)
Heartbeat CPU 0 instructions: 560000004 cycles: 316940202 heartbeat IPC: 2.146 cumulative IPC: 1.675 (Simulation time: 03 hr 48 min 33 sec)
Heartbeat CPU 0 instructions: 570000001 cycles: 320076984 heartbeat IPC: 3.188 cumulative IPC: 1.691 (Simulation time: 03 hr 51 min 19 sec)
Heartbeat CPU 0 instructions: 580000003 cycles: 323627653 heartbeat IPC: 2.816 cumulative IPC: 1.703 (Simulation time: 03 hr 54 min 13 sec)
Heartbeat CPU 0 instructions: 590000002 cycles: 327254209 heartbeat IPC: 2.757 cumulative IPC: 1.716 (Simulation time: 03 hr 56 min 55 sec)
Heartbeat CPU 0 instructions: 600000003 cycles: 330322346 heartbeat IPC: 3.259 cumulative IPC: 1.731 (Simulation time: 03 hr 59 min 38 sec)
Heartbeat CPU 0 instructions: 610000001 cycles: 333832666 heartbeat IPC: 2.849 cumulative IPC: 1.743 (Simulation time: 04 hr 02 min 18 sec)
Heartbeat CPU 0 instructions: 620000000 cycles: 337850835 heartbeat IPC: 2.489 cumulative IPC: 1.752 (Simulation time: 04 hr 05 min 13 sec)
Heartbeat CPU 0 instructions: 630000002 cycles: 341220015 heartbeat IPC: 2.968 cumulative IPC: 1.764 (Simulation time: 04 hr 07 min 55 sec)
Heartbeat CPU 0 instructions: 640000004 cycles: 345217621 heartbeat IPC: 2.501 cumulative IPC: 1.773 (Simulation time: 04 hr 10 min 49 sec)
Heartbeat CPU 0 instructions: 650000001 cycles: 349034559 heartbeat IPC: 2.62 cumulative IPC: 1.783 (Simulation time: 04 hr 13 min 22 sec)
Simulation finished CPU 0 instructions: 600000001 cycles: 336534498 cumulative IPC: 1.783 (Simulation time: 04 hr 13 min 22 sec)
Simulation complete CPU 0 instructions: 600000001 cycles: 336534498 cumulative IPC: 1.783 (Simulation time: 04 hr 13 min 22 sec)

ChampSim completed all CPUs

=== Simulation ===
CPU 0 runs traces/400.perlbench-50B.champsimtrace.xz
Region of Interest Statistics

CPU 0 cumulative IPC: 1.783 instructions: 600000001 cycles: 336534498
CPU 0 Branch Prediction Accuracy: 96.2% MPKI: 7.839 Average ROB Occupancy at Mispredict: 43.72
Branch type MPKI
BRANCH_DIRECT_JUMP: 0.0176
BRANCH_INDIRECT: 0.38
BRANCH_CONDITIONAL: 6.99
BRANCH_DIRECT_CALL: 0.0067
BRANCH_INDIRECT_CALL: 0.431
BRANCH_RETURN: 0.0161

LLC TOTAL        ACCESS:     511247 HIT:     128610 MISS:     382637
LLC LOAD         ACCESS:     376474 HIT:      94952 MISS:     281522
LLC RFO          ACCESS:      32895 HIT:       7731 MISS:      25164
LLC PREFETCH     ACCESS:          0 HIT:          0 MISS:          0
LLC WRITE        ACCESS:      83816 HIT:      24474 MISS:      59342
LLC TRANSLATION  ACCESS:      18062 HIT:       1453 MISS:      16609
LLC PREFETCH REQUESTED:          0 ISSUED:          0 USEFUL:          0 USELESS:          0
LLC AVERAGE MISS LATENCY: 480.1 cycles
cpu0_DTLB TOTAL        ACCESS:  146450317 HIT:  145146785 MISS:    1303532
cpu0_DTLB LOAD         ACCESS:  146450317 HIT:  145146785 MISS:    1303532
cpu0_DTLB RFO          ACCESS:          0 HIT:          0 MISS:          0
cpu0_DTLB PREFETCH     ACCESS:          0 HIT:          0 MISS:          0
cpu0_DTLB WRITE        ACCESS:          0 HIT:          0 MISS:          0
cpu0_DTLB TRANSLATION  ACCESS:          0 HIT:          0 MISS:          0
cpu0_DTLB PREFETCH REQUESTED:          0 ISSUED:          0 USEFUL:          0 USELESS:          0
cpu0_DTLB AVERAGE MISS LATENCY: 14.23 cycles
cpu0_ITLB TOTAL        ACCESS:    8986560 HIT:    8801819 MISS:     184741
cpu0_ITLB LOAD         ACCESS:    8986560 HIT:    8801819 MISS:     184741
cpu0_ITLB RFO          ACCESS:          0 HIT:          0 MISS:          0
cpu0_ITLB PREFETCH     ACCESS:          0 HIT:          0 MISS:          0
cpu0_ITLB WRITE        ACCESS:          0 HIT:          0 MISS:          0
cpu0_ITLB TRANSLATION  ACCESS:          0 HIT:          0 MISS:          0
cpu0_ITLB PREFETCH REQUESTED:          0 ISSUED:          0 USEFUL:          0 USELESS:          0
cpu0_ITLB AVERAGE MISS LATENCY: 4.029 cycles
cpu0_L1D TOTAL        ACCESS:  193259247 HIT:  190403000 MISS:    2856247
cpu0_L1D LOAD         ACCESS:  107412793 HIT:  105062470 MISS:    2350323
cpu0_L1D RFO          ACCESS:          0 HIT:          0 MISS:          0
cpu0_L1D PREFETCH     ACCESS:          0 HIT:          0 MISS:          0
cpu0_L1D WRITE        ACCESS:   85817928 HIT:   85338518 MISS:     479410
cpu0_L1D TRANSLATION  ACCESS:      28526 HIT:       2012 MISS:      26514
cpu0_L1D PREFETCH REQUESTED:          0 ISSUED:          0 USEFUL:          0 USELESS:          0
cpu0_L1D AVERAGE MISS LATENCY: 65.46 cycles
cpu0_L1I TOTAL        ACCESS:   10420667 HIT:    8657729 MISS:    1762938
cpu0_L1I LOAD         ACCESS:   10420667 HIT:    8657729 MISS:    1762938
cpu0_L1I RFO          ACCESS:          0 HIT:          0 MISS:          0
cpu0_L1I PREFETCH     ACCESS:          0 HIT:          0 MISS:          0
cpu0_L1I WRITE        ACCESS:          0 HIT:          0 MISS:          0
cpu0_L1I TRANSLATION  ACCESS:          0 HIT:          0 MISS:          0
cpu0_L1I PREFETCH REQUESTED:          0 ISSUED:          0 USEFUL:          0 USELESS:          0
cpu0_L1I AVERAGE MISS LATENCY: 15.05 cycles
cpu0_L2C TOTAL        ACCESS:    3232291 HIT:    2803930 MISS:     428361
cpu0_L2C LOAD         ACCESS:    2710075 HIT:    2333601 MISS:     376474
cpu0_L2C RFO          ACCESS:     133268 HIT:     100373 MISS:      32895
cpu0_L2C PREFETCH     ACCESS:          0 HIT:          0 MISS:          0
cpu0_L2C WRITE        ACCESS:     362502 HIT:     361572 MISS:        930
cpu0_L2C TRANSLATION  ACCESS:      26446 HIT:       8384 MISS:      18062
cpu0_L2C PREFETCH REQUESTED:          0 ISSUED:          0 USEFUL:          0 USELESS:          0
cpu0_L2C AVERAGE MISS LATENCY: 449.6 cycles
cpu0_STLB TOTAL        ACCESS:    1008448 HIT:     981755 MISS:      26693
cpu0_STLB LOAD         ACCESS:    1008448 HIT:     981755 MISS:      26693
cpu0_STLB RFO          ACCESS:          0 HIT:          0 MISS:          0
cpu0_STLB PREFETCH     ACCESS:          0 HIT:          0 MISS:          0
cpu0_STLB WRITE        ACCESS:          0 HIT:          0 MISS:          0
cpu0_STLB TRANSLATION  ACCESS:          0 HIT:          0 MISS:          0
cpu0_STLB PREFETCH REQUESTED:          0 ISSUED:          0 USEFUL:          0 USELESS:          0
cpu0_STLB AVERAGE MISS LATENCY: 483.8 cycles

DRAM Statistics

Channel 0 RQ ROW_BUFFER_HIT:      46157
  ROW_BUFFER_MISS:     276932
 AVG DBUS CONGESTED CYCLE: 3.836
WQ ROW_BUFFER_HIT: Channel 0 
  ROW_BUFFER_MISS:      10045
  FULL:      51234
