WARNING: physical memory size is smaller than virtual memory size.

*** ChampSim Multicore Out-of-Order Simulator ***
Warmup Instructions: 50000000
Simulation Instructions: 600000000
Number of CPUs: 1
Page size: 4096

Off-chip DRAM Size: 4 GiB Channels: 1 Width: 64-bit Data Race: 3200 MT/s
Heartbeat CPU 0 instructions: 10000000 cycles: 2500061 heartbeat IPC: 4 cumulative IPC: 4 (Simulation time: 00 hr 03 min 21 sec)
Heartbeat CPU 0 instructions: 20000000 cycles: 5000061 heartbeat IPC: 4 cumulative IPC: 4 (Simulation time: 00 hr 06 min 43 sec)
Heartbeat CPU 0 instructions: 30000000 cycles: 7500061 heartbeat IPC: 4 cumulative IPC: 4 (Simulation time: 00 hr 10 min 04 sec)
Heartbeat CPU 0 instructions: 40000000 cycles: 10000061 heartbeat IPC: 4 cumulative IPC: 4 (Simulation time: 00 hr 13 min 24 sec)
Heartbeat CPU 0 instructions: 50000000 cycles: 12500061 heartbeat IPC: 4 cumulative IPC: 4 (Simulation time: 00 hr 16 min 43 sec)
Warmup finished CPU 0 instructions: 50000000 cycles: 12500062 cumulative IPC: 4 (Simulation time: 00 hr 16 min 43 sec)
Warmup complete CPU 0 instructions: 50000000 cycles: 12500062 cumulative IPC: 4 (Simulation time: 00 hr 16 min 43 sec)
Heartbeat CPU 0 instructions: 60000002 cycles: 16896553 heartbeat IPC: 2.275 cumulative IPC: 2.275 (Simulation time: 00 hr 21 min 40 sec)
Heartbeat CPU 0 instructions: 70000003 cycles: 21873166 heartbeat IPC: 2.009 cumulative IPC: 2.134 (Simulation time: 00 hr 26 min 48 sec)
Heartbeat CPU 0 instructions: 80000001 cycles: 27215142 heartbeat IPC: 1.872 cumulative IPC: 2.039 (Simulation time: 00 hr 32 min 12 sec)
Heartbeat CPU 0 instructions: 90000000 cycles: 31509834 heartbeat IPC: 2.328 cumulative IPC: 2.104 (Simulation time: 00 hr 37 min 02 sec)
Heartbeat CPU 0 instructions: 100000003 cycles: 36357541 heartbeat IPC: 2.063 cumulative IPC: 2.096 (Simulation time: 00 hr 42 min 11 sec)
Heartbeat CPU 0 instructions: 110000002 cycles: 41219449 heartbeat IPC: 2.057 cumulative IPC: 2.089 (Simulation time: 00 hr 47 min 30 sec)
Heartbeat CPU 0 instructions: 120000001 cycles: 46211655 heartbeat IPC: 2.003 cumulative IPC: 2.076 (Simulation time: 00 hr 52 min 46 sec)
Heartbeat CPU 0 instructions: 130000003 cycles: 50769935 heartbeat IPC: 2.194 cumulative IPC: 2.09 (Simulation time: 00 hr 57 min 44 sec)
Heartbeat CPU 0 instructions: 140000002 cycles: 55652323 heartbeat IPC: 2.048 cumulative IPC: 2.086 (Simulation time: 01 hr 02 min 52 sec)
Heartbeat CPU 0 instructions: 150000001 cycles: 60310582 heartbeat IPC: 2.147 cumulative IPC: 2.092 (Simulation time: 01 hr 07 min 50 sec)
Heartbeat CPU 0 instructions: 160000000 cycles: 64939153 heartbeat IPC: 2.16 cumulative IPC: 2.098 (Simulation time: 01 hr 12 min 54 sec)
Heartbeat CPU 0 instructions: 170000000 cycles: 70263719 heartbeat IPC: 1.878 cumulative IPC: 2.077 (Simulation time: 01 hr 18 min 18 sec)
Heartbeat CPU 0 instructions: 180000001 cycles: 75977804 heartbeat IPC: 1.75 cumulative IPC: 2.048 (Simulation time: 01 hr 23 min 56 sec)
Heartbeat CPU 0 instructions: 190000002 cycles: 80439199 heartbeat IPC: 2.241 cumulative IPC: 2.061 (Simulation time: 01 hr 28 min 54 sec)
Heartbeat CPU 0 instructions: 200000002 cycles: 85329804 heartbeat IPC: 2.045 cumulative IPC: 2.06 (Simulation time: 01 hr 34 min 05 sec)
Heartbeat CPU 0 instructions: 210000000 cycles: 90328194 heartbeat IPC: 2.001 cumulative IPC: 2.056 (Simulation time: 01 hr 39 min 17 sec)
Heartbeat CPU 0 instructions: 220000001 cycles: 95250437 heartbeat IPC: 2.032 cumulative IPC: 2.054 (Simulation time: 01 hr 44 min 27 sec)
Heartbeat CPU 0 instructions: 230000002 cycles: 100490432 heartbeat IPC: 1.908 cumulative IPC: 2.046 (Simulation time: 01 hr 49 min 47 sec)
Heartbeat CPU 0 instructions: 240000001 cycles: 105446565 heartbeat IPC: 2.018 cumulative IPC: 2.044 (Simulation time: 01 hr 55 min 00 sec)
Heartbeat CPU 0 instructions: 250000003 cycles: 110620160 heartbeat IPC: 1.933 cumulative IPC: 2.038 (Simulation time: 02 hr 00 min 15 sec)
Heartbeat CPU 0 instructions: 260000001 cycles: 115485729 heartbeat IPC: 2.055 cumulative IPC: 2.039 (Simulation time: 02 hr 05 min 26 sec)
Heartbeat CPU 0 instructions: 270000000 cycles: 122909159 heartbeat IPC: 1.347 cumulative IPC: 1.993 (Simulation time: 02 hr 12 min 19 sec)
Heartbeat CPU 0 instructions: 280000000 cycles: 134139402 heartbeat IPC: 0.8905 cumulative IPC: 1.891 (Simulation time: 02 hr 21 min 52 sec)
Heartbeat CPU 0 instructions: 290000001 cycles: 143734087 heartbeat IPC: 1.042 cumulative IPC: 1.829 (Simulation time: 02 hr 30 min 23 sec)
Heartbeat CPU 0 instructions: 300000003 cycles: 151154210 heartbeat IPC: 1.348 cumulative IPC: 1.803 (Simulation time: 02 hr 37 min 35 sec)
Heartbeat CPU 0 instructions: 310000004 cycles: 162287229 heartbeat IPC: 0.8982 cumulative IPC: 1.736 (Simulation time: 02 hr 47 min 11 sec)
Heartbeat CPU 0 instructions: 320000004 cycles: 167986479 heartbeat IPC: 1.755 cumulative IPC: 1.736 (Simulation time: 02 hr 53 min 07 sec)
Heartbeat CPU 0 instructions: 330000000 cycles: 173273189 heartbeat IPC: 1.892 cumulative IPC: 1.742 (Simulation time: 02 hr 58 min 40 sec)
Heartbeat CPU 0 instructions: 340000001 cycles: 178483071 heartbeat IPC: 1.919 cumulative IPC: 1.747 (Simulation time: 03 hr 04 min 07 sec)
Heartbeat CPU 0 instructions: 350000000 cycles: 183873166 heartbeat IPC: 1.855 cumulative IPC: 1.751 (Simulation time: 03 hr 09 min 44 sec)
Heartbeat CPU 0 instructions: 360000003 cycles: 189035078 heartbeat IPC: 1.937 cumulative IPC: 1.756 (Simulation time: 03 hr 15 min 07 sec)
Heartbeat CPU 0 instructions: 370000001 cycles: 194110638 heartbeat IPC: 1.97 cumulative IPC: 1.762 (Simulation time: 03 hr 20 min 26 sec)
Heartbeat CPU 0 instructions: 380000004 cycles: 199469366 heartbeat IPC: 1.866 cumulative IPC: 1.765 (Simulation time: 03 hr 26 min 00 sec)
Heartbeat CPU 0 instructions: 390000002 cycles: 204915437 heartbeat IPC: 1.836 cumulative IPC: 1.767 (Simulation time: 03 hr 31 min 36 sec)
Heartbeat CPU 0 instructions: 400000000 cycles: 210399662 heartbeat IPC: 1.823 cumulative IPC: 1.769 (Simulation time: 03 hr 37 min 17 sec)
Heartbeat CPU 0 instructions: 410000000 cycles: 218405104 heartbeat IPC: 1.249 cumulative IPC: 1.748 (Simulation time: 03 hr 44 min 54 sec)
Heartbeat CPU 0 instructions: 420000001 cycles: 229394029 heartbeat IPC: 0.91 cumulative IPC: 1.706 (Simulation time: 03 hr 54 min 19 sec)
Heartbeat CPU 0 instructions: 430000000 cycles: 237041325 heartbeat IPC: 1.308 cumulative IPC: 1.692 (Simulation time: 04 hr 01 min 45 sec)
Heartbeat CPU 0 instructions: 440000002 cycles: 244083859 heartbeat IPC: 1.42 cumulative IPC: 1.684 (Simulation time: 04 hr 08 min 43 sec)
Heartbeat CPU 0 instructions: 450000000 cycles: 250678709 heartbeat IPC: 1.516 cumulative IPC: 1.679 (Simulation time: 04 hr 15 min 22 sec)
Heartbeat CPU 0 instructions: 460000002 cycles: 261629344 heartbeat IPC: 0.9132 cumulative IPC: 1.646 (Simulation time: 04 hr 24 min 51 sec)
Heartbeat CPU 0 instructions: 470000000 cycles: 271730302 heartbeat IPC: 0.99 cumulative IPC: 1.62 (Simulation time: 04 hr 33 min 41 sec)
Heartbeat CPU 0 instructions: 480000000 cycles: 277216100 heartbeat IPC: 1.823 cumulative IPC: 1.624 (Simulation time: 04 hr 39 min 18 sec)
Heartbeat CPU 0 instructions: 490000001 cycles: 282934354 heartbeat IPC: 1.749 cumulative IPC: 1.627 (Simulation time: 04 hr 45 min 08 sec)
Heartbeat CPU 0 instructions: 500000002 cycles: 288558570 heartbeat IPC: 1.778 cumulative IPC: 1.63 (Simulation time: 04 hr 50 min 50 sec)
Heartbeat CPU 0 instructions: 510000000 cycles: 294233224 heartbeat IPC: 1.762 cumulative IPC: 1.633 (Simulation time: 04 hr 56 min 35 sec)
Heartbeat CPU 0 instructions: 520000000 cycles: 299989884 heartbeat IPC: 1.737 cumulative IPC: 1.635 (Simulation time: 05 hr 02 min 22 sec)
Heartbeat CPU 0 instructions: 530000001 cycles: 311063443 heartbeat IPC: 0.9031 cumulative IPC: 1.608 (Simulation time: 05 hr 11 min 48 sec)
Heartbeat CPU 0 instructions: 540000000 cycles: 321996737 heartbeat IPC: 0.9146 cumulative IPC: 1.583 (Simulation time: 05 hr 21 min 29 sec)
Heartbeat CPU 0 instructions: 550000002 cycles: 334545512 heartbeat IPC: 0.7969 cumulative IPC: 1.553 (Simulation time: 05 hr 32 min 01 sec)
Heartbeat CPU 0 instructions: 560000004 cycles: 339531121 heartbeat IPC: 2.006 cumulative IPC: 1.559 (Simulation time: 05 hr 37 min 21 sec)
Heartbeat CPU 0 instructions: 570000001 cycles: 343940846 heartbeat IPC: 2.268 cumulative IPC: 1.569 (Simulation time: 05 hr 42 min 31 sec)
Heartbeat CPU 0 instructions: 580000003 cycles: 348178329 heartbeat IPC: 2.36 cumulative IPC: 1.579 (Simulation time: 05 hr 47 min 21 sec)
Heartbeat CPU 0 instructions: 590000001 cycles: 353082817 heartbeat IPC: 2.039 cumulative IPC: 1.586 (Simulation time: 05 hr 52 min 35 sec)
Heartbeat CPU 0 instructions: 600000003 cycles: 357724827 heartbeat IPC: 2.154 cumulative IPC: 1.593 (Simulation time: 05 hr 57 min 57 sec)
Heartbeat CPU 0 instructions: 610000001 cycles: 362588459 heartbeat IPC: 2.056 cumulative IPC: 1.6 (Simulation time: 06 hr 03 min 20 sec)
Heartbeat CPU 0 instructions: 620000000 cycles: 367655548 heartbeat IPC: 1.974 cumulative IPC: 1.605 (Simulation time: 06 hr 08 min 51 sec)
Heartbeat CPU 0 instructions: 630000002 cycles: 371897794 heartbeat IPC: 2.357 cumulative IPC: 1.614 (Simulation time: 06 hr 13 min 58 sec)
Heartbeat CPU 0 instructions: 640000004 cycles: 377219307 heartbeat IPC: 1.879 cumulative IPC: 1.618 (Simulation time: 06 hr 19 min 23 sec)
Heartbeat CPU 0 instructions: 650000001 cycles: 381979235 heartbeat IPC: 2.101 cumulative IPC: 1.624 (Simulation time: 06 hr 24 min 30 sec)
Simulation finished CPU 0 instructions: 600000001 cycles: 369479174 cumulative IPC: 1.624 (Simulation time: 06 hr 24 min 30 sec)
Simulation complete CPU 0 instructions: 600000001 cycles: 369479174 cumulative IPC: 1.624 (Simulation time: 06 hr 24 min 30 sec)

ChampSim completed all CPUs

=== Simulation ===
CPU 0 runs traces/400.perlbench-50B.champsimtrace.xz
Region of Interest Statistics

CPU 0 cumulative IPC: 1.624 instructions: 600000001 cycles: 369479174
CPU 0 Branch Prediction Accuracy: 93.83% MPKI: 12.71 Average ROB Occupancy at Mispredict: 29.2
Branch type MPKI
BRANCH_DIRECT_JUMP: 0.0176
BRANCH_INDIRECT: 0.38
BRANCH_CONDITIONAL: 11.9
BRANCH_DIRECT_CALL: 0.0067
BRANCH_INDIRECT_CALL: 0.431
BRANCH_RETURN: 0.0161

LLC TOTAL        ACCESS:     889211 HIT:     397355 MISS:     491856
LLC LOAD         ACCESS:     377105 HIT:     156179 MISS:     220926
LLC RFO          ACCESS:      32719 HIT:      12329 MISS:      20390
LLC PREFETCH     ACCESS:     377105 HIT:     141512 MISS:     235593
LLC WRITE        ACCESS:      84220 HIT:      82055 MISS:       2165
LLC TRANSLATION  ACCESS:      18062 HIT:       5280 MISS:      12782
LLC PREFETCH REQUESTED:     377105 ISSUED:     377105 USEFUL:      89309 USELESS:      84430
LLC AVERAGE MISS LATENCY: 557.4 cycles
cpu0_DTLB TOTAL        ACCESS:  156755868 HIT:  155456222 MISS:    1299646
cpu0_DTLB LOAD         ACCESS:  156755868 HIT:  155456222 MISS:    1299646
cpu0_DTLB RFO          ACCESS:          0 HIT:          0 MISS:          0
cpu0_DTLB PREFETCH     ACCESS:          0 HIT:          0 MISS:          0
cpu0_DTLB WRITE        ACCESS:          0 HIT:          0 MISS:          0
cpu0_DTLB TRANSLATION  ACCESS:          0 HIT:          0 MISS:          0
cpu0_DTLB PREFETCH REQUESTED:          0 ISSUED:          0 USEFUL:          0 USELESS:          0
cpu0_DTLB AVERAGE MISS LATENCY: 13.15 cycles
cpu0_ITLB TOTAL        ACCESS:    8932404 HIT:    8733569 MISS:     198835
cpu0_ITLB LOAD         ACCESS:    8932404 HIT:    8733569 MISS:     198835
cpu0_ITLB RFO          ACCESS:          0 HIT:          0 MISS:          0
cpu0_ITLB PREFETCH     ACCESS:          0 HIT:          0 MISS:          0
cpu0_ITLB WRITE        ACCESS:          0 HIT:          0 MISS:          0
cpu0_ITLB TRANSLATION  ACCESS:          0 HIT:          0 MISS:          0
cpu0_ITLB PREFETCH REQUESTED:          0 ISSUED:          0 USEFUL:          0 USELESS:          0
cpu0_ITLB AVERAGE MISS LATENCY: 3.602 cycles
cpu0_L1D TOTAL        ACCESS:  203640657 HIT:  200796612 MISS:    2844045
cpu0_L1D LOAD         ACCESS:  117964069 HIT:  115630231 MISS:    2333838
cpu0_L1D RFO          ACCESS:          0 HIT:          0 MISS:          0
cpu0_L1D PREFETCH     ACCESS:          0 HIT:          0 MISS:          0
cpu0_L1D WRITE        ACCESS:   85648053 HIT:   85164391 MISS:     483662
cpu0_L1D TRANSLATION  ACCESS:      28535 HIT:       1990 MISS:      26545
cpu0_L1D PREFETCH REQUESTED:          0 ISSUED:          0 USEFUL:          0 USELESS:          0
cpu0_L1D AVERAGE MISS LATENCY: 57.84 cycles
cpu0_L1I TOTAL        ACCESS:   10371129 HIT:    8572105 MISS:    1799024
cpu0_L1I LOAD         ACCESS:   10371129 HIT:    8572105 MISS:    1799024
cpu0_L1I RFO          ACCESS:          0 HIT:          0 MISS:          0
cpu0_L1I PREFETCH     ACCESS:          0 HIT:          0 MISS:          0
cpu0_L1I WRITE        ACCESS:          0 HIT:          0 MISS:          0
cpu0_L1I TRANSLATION  ACCESS:          0 HIT:          0 MISS:          0
cpu0_L1I PREFETCH REQUESTED:          0 ISSUED:          0 USEFUL:          0 USELESS:          0
cpu0_L1I AVERAGE MISS LATENCY: 10.93 cycles
cpu0_L2C TOTAL        ACCESS:    3235400 HIT:    2806590 MISS:     428810
cpu0_L2C LOAD         ACCESS:    2711752 HIT:    2334647 MISS:     377105
cpu0_L2C RFO          ACCESS:     133681 HIT:     100962 MISS:      32719
cpu0_L2C PREFETCH     ACCESS:          0 HIT:          0 MISS:          0
cpu0_L2C WRITE        ACCESS:     363509 HIT:     362585 MISS:        924
cpu0_L2C TRANSLATION  ACCESS:      26458 HIT:       8396 MISS:      18062
cpu0_L2C PREFETCH REQUESTED:          0 ISSUED:          0 USEFUL:          0 USELESS:          0
cpu0_L2C AVERAGE MISS LATENCY: 377.7 cycles
cpu0_STLB TOTAL        ACCESS:    1009139 HIT:     982451 MISS:      26688
cpu0_STLB LOAD         ACCESS:    1009139 HIT:     982451 MISS:      26688
cpu0_STLB RFO          ACCESS:          0 HIT:          0 MISS:          0
cpu0_STLB PREFETCH     ACCESS:          0 HIT:          0 MISS:          0
cpu0_STLB WRITE        ACCESS:          0 HIT:          0 MISS:          0
cpu0_STLB TRANSLATION  ACCESS:          0 HIT:          0 MISS:          0
cpu0_STLB PREFETCH REQUESTED:          0 ISSUED:          0 USEFUL:          0 USELESS:          0
cpu0_STLB AVERAGE MISS LATENCY: 426 cycles

DRAM Statistics

Channel 0 RQ ROW_BUFFER_HIT:      79891
  ROW_BUFFER_MISS:     338414
 AVG DBUS CONGESTED CYCLE: 3.871
WQ ROW_BUFFER_HIT: Channel 0 
  ROW_BUFFER_MISS:       6495
  FULL:      48588
