WARNING: physical memory size is smaller than virtual memory size.

*** ChampSim Multicore Out-of-Order Simulator ***
Warmup Instructions: 50000000
Simulation Instructions: 600000000
Number of CPUs: 1
Page size: 4096

Initialize SIGNATURE TABLE
ST_SET: 1
ST_WAY: 256
ST_TAG_BIT: 16
ST_TAG_MASK: ffff

Initialize PATTERN TABLE
PT_SET: 512
PT_WAY: 4
SIG_DELTA_BIT: 7
C_SIG_BIT: 4
C_DELTA_BIT: 4

Initialize PREFETCH FILTER
FILTER_SET: 1024
Off-chip DRAM Size: 4 GiB Channels: 1 Width: 64-bit Data Race: 3200 MT/s
Heartbeat CPU 0 instructions: 10000000 cycles: 2500061 heartbeat IPC: 4 cumulative IPC: 4 (Simulation time: 00 hr 03 min 27 sec)
Heartbeat CPU 0 instructions: 20000000 cycles: 5000061 heartbeat IPC: 4 cumulative IPC: 4 (Simulation time: 00 hr 06 min 55 sec)
Heartbeat CPU 0 instructions: 30000000 cycles: 7500061 heartbeat IPC: 4 cumulative IPC: 4 (Simulation time: 00 hr 10 min 20 sec)
Heartbeat CPU 0 instructions: 40000000 cycles: 10000061 heartbeat IPC: 4 cumulative IPC: 4 (Simulation time: 00 hr 13 min 49 sec)
Heartbeat CPU 0 instructions: 50000000 cycles: 12500061 heartbeat IPC: 4 cumulative IPC: 4 (Simulation time: 00 hr 17 min 14 sec)
Warmup finished CPU 0 instructions: 50000000 cycles: 12500062 cumulative IPC: 4 (Simulation time: 00 hr 17 min 14 sec)
Warmup complete CPU 0 instructions: 50000000 cycles: 12500062 cumulative IPC: 4 (Simulation time: 00 hr 17 min 14 sec)
Heartbeat CPU 0 instructions: 60000002 cycles: 16259832 heartbeat IPC: 2.66 cumulative IPC: 2.66 (Simulation time: 00 hr 21 min 55 sec)
Heartbeat CPU 0 instructions: 70000003 cycles: 20422433 heartbeat IPC: 2.402 cumulative IPC: 2.524 (Simulation time: 00 hr 26 min 44 sec)
Heartbeat CPU 0 instructions: 80000003 cycles: 24631436 heartbeat IPC: 2.376 cumulative IPC: 2.473 (Simulation time: 00 hr 31 min 34 sec)
Heartbeat CPU 0 instructions: 90000000 cycles: 27870431 heartbeat IPC: 3.087 cumulative IPC: 2.602 (Simulation time: 00 hr 35 min 55 sec)
Heartbeat CPU 0 instructions: 100000003 cycles: 31885605 heartbeat IPC: 2.491 cumulative IPC: 2.579 (Simulation time: 00 hr 40 min 42 sec)
Heartbeat CPU 0 instructions: 110000002 cycles: 35863223 heartbeat IPC: 2.514 cumulative IPC: 2.568 (Simulation time: 00 hr 45 min 22 sec)
Heartbeat CPU 0 instructions: 120000001 cycles: 39426435 heartbeat IPC: 2.806 cumulative IPC: 2.6 (Simulation time: 00 hr 50 min 08 sec)
Heartbeat CPU 0 instructions: 130000003 cycles: 43084206 heartbeat IPC: 2.734 cumulative IPC: 2.616 (Simulation time: 00 hr 54 min 38 sec)
Heartbeat CPU 0 instructions: 140000002 cycles: 47044017 heartbeat IPC: 2.525 cumulative IPC: 2.605 (Simulation time: 00 hr 59 min 22 sec)
Heartbeat CPU 0 instructions: 150000001 cycles: 50942502 heartbeat IPC: 2.565 cumulative IPC: 2.601 (Simulation time: 01 hr 04 min 03 sec)
Heartbeat CPU 0 instructions: 160000000 cycles: 54592683 heartbeat IPC: 2.74 cumulative IPC: 2.613 (Simulation time: 01 hr 08 min 35 sec)
Heartbeat CPU 0 instructions: 170000001 cycles: 58557845 heartbeat IPC: 2.522 cumulative IPC: 2.605 (Simulation time: 01 hr 13 min 18 sec)
Heartbeat CPU 0 instructions: 180000001 cycles: 61989524 heartbeat IPC: 2.914 cumulative IPC: 2.627 (Simulation time: 01 hr 17 min 50 sec)
Heartbeat CPU 0 instructions: 190000002 cycles: 65472486 heartbeat IPC: 2.871 cumulative IPC: 2.643 (Simulation time: 01 hr 22 min 26 sec)
Heartbeat CPU 0 instructions: 200000002 cycles: 69210378 heartbeat IPC: 2.675 cumulative IPC: 2.645 (Simulation time: 01 hr 27 min 08 sec)
Heartbeat CPU 0 instructions: 210000000 cycles: 72756875 heartbeat IPC: 2.82 cumulative IPC: 2.655 (Simulation time: 01 hr 31 min 41 sec)
Heartbeat CPU 0 instructions: 220000001 cycles: 76460926 heartbeat IPC: 2.7 cumulative IPC: 2.658 (Simulation time: 01 hr 36 min 14 sec)
Heartbeat CPU 0 instructions: 230000002 cycles: 80162420 heartbeat IPC: 2.702 cumulative IPC: 2.66 (Simulation time: 01 hr 40 min 51 sec)
Heartbeat CPU 0 instructions: 240000004 cycles: 84161500 heartbeat IPC: 2.501 cumulative IPC: 2.651 (Simulation time: 01 hr 45 min 40 sec)
Heartbeat CPU 0 instructions: 250000003 cycles: 88494103 heartbeat IPC: 2.308 cumulative IPC: 2.632 (Simulation time: 01 hr 50 min 36 sec)
Heartbeat CPU 0 instructions: 260000001 cycles: 92144577 heartbeat IPC: 2.739 cumulative IPC: 2.637 (Simulation time: 01 hr 55 min 10 sec)
Heartbeat CPU 0 instructions: 270000003 cycles: 99637599 heartbeat IPC: 1.335 cumulative IPC: 2.525 (Simulation time: 02 hr 02 min 04 sec)
Heartbeat CPU 0 instructions: 280000000 cycles: 111752721 heartbeat IPC: 0.8254 cumulative IPC: 2.317 (Simulation time: 02 hr 12 min 09 sec)
Heartbeat CPU 0 instructions: 290000000 cycles: 122844518 heartbeat IPC: 0.9016 cumulative IPC: 2.175 (Simulation time: 02 hr 21 min 39 sec)
Heartbeat CPU 0 instructions: 300000000 cycles: 130976646 heartbeat IPC: 1.23 cumulative IPC: 2.11 (Simulation time: 02 hr 29 min 24 sec)
Heartbeat CPU 0 instructions: 310000004 cycles: 142941135 heartbeat IPC: 0.8358 cumulative IPC: 1.993 (Simulation time: 02 hr 39 min 37 sec)
Heartbeat CPU 0 instructions: 320000004 cycles: 148387467 heartbeat IPC: 1.836 cumulative IPC: 1.987 (Simulation time: 02 hr 45 min 33 sec)
Heartbeat CPU 0 instructions: 330000000 cycles: 152463409 heartbeat IPC: 2.453 cumulative IPC: 2.001 (Simulation time: 02 hr 50 min 33 sec)
Heartbeat CPU 0 instructions: 340000001 cycles: 156827991 heartbeat IPC: 2.291 cumulative IPC: 2.009 (Simulation time: 02 hr 55 min 37 sec)
Heartbeat CPU 0 instructions: 350000004 cycles: 161314858 heartbeat IPC: 2.229 cumulative IPC: 2.016 (Simulation time: 03 hr 00 min 48 sec)
Heartbeat CPU 0 instructions: 360000003 cycles: 165513651 heartbeat IPC: 2.382 cumulative IPC: 2.026 (Simulation time: 03 hr 05 min 50 sec)
Heartbeat CPU 0 instructions: 370000001 cycles: 169597593 heartbeat IPC: 2.449 cumulative IPC: 2.037 (Simulation time: 03 hr 10 min 46 sec)
Heartbeat CPU 0 instructions: 380000004 cycles: 173565063 heartbeat IPC: 2.52 cumulative IPC: 2.049 (Simulation time: 03 hr 15 min 39 sec)
Heartbeat CPU 0 instructions: 390000002 cycles: 177745024 heartbeat IPC: 2.392 cumulative IPC: 2.058 (Simulation time: 03 hr 20 min 41 sec)
Heartbeat CPU 0 instructions: 400000000 cycles: 182249615 heartbeat IPC: 2.22 cumulative IPC: 2.062 (Simulation time: 03 hr 25 min 54 sec)
Heartbeat CPU 0 instructions: 410000000 cycles: 190666325 heartbeat IPC: 1.188 cumulative IPC: 2.021 (Simulation time: 03 hr 33 min 32 sec)
Heartbeat CPU 0 instructions: 420000001 cycles: 203022678 heartbeat IPC: 0.8093 cumulative IPC: 1.942 (Simulation time: 03 hr 44 min 01 sec)
Heartbeat CPU 0 instructions: 430000002 cycles: 211641681 heartbeat IPC: 1.16 cumulative IPC: 1.908 (Simulation time: 03 hr 52 min 08 sec)
Heartbeat CPU 0 instructions: 440000002 cycles: 219094534 heartbeat IPC: 1.342 cumulative IPC: 1.888 (Simulation time: 03 hr 59 min 23 sec)
Heartbeat CPU 0 instructions: 450000000 cycles: 226620583 heartbeat IPC: 1.329 cumulative IPC: 1.868 (Simulation time: 04 hr 06 min 40 sec)
Heartbeat CPU 0 instructions: 460000002 cycles: 238348831 heartbeat IPC: 0.8526 cumulative IPC: 1.815 (Simulation time: 04 hr 16 min 35 sec)
Heartbeat CPU 0 instructions: 470000003 cycles: 248864448 heartbeat IPC: 0.951 cumulative IPC: 1.777 (Simulation time: 04 hr 25 min 49 sec)
Heartbeat CPU 0 instructions: 480000003 cycles: 253299460 heartbeat IPC: 2.255 cumulative IPC: 1.786 (Simulation time: 04 hr 30 min 56 sec)
Heartbeat CPU 0 instructions: 490000001 cycles: 258092890 heartbeat IPC: 2.086 cumulative IPC: 1.792 (Simulation time: 04 hr 36 min 14 sec)
Heartbeat CPU 0 instructions: 500000002 cycles: 262656144 heartbeat IPC: 2.191 cumulative IPC: 1.799 (Simulation time: 04 hr 41 min 29 sec)
Heartbeat CPU 0 instructions: 510000000 cycles: 267192333 heartbeat IPC: 2.204 cumulative IPC: 1.806 (Simulation time: 04 hr 46 min 41 sec)
Heartbeat CPU 0 instructions: 520000000 cycles: 271822594 heartbeat IPC: 2.16 cumulative IPC: 1.812 (Simulation time: 04 hr 51 min 58 sec)
Heartbeat CPU 0 instructions: 530000001 cycles: 284897808 heartbeat IPC: 0.7648 cumulative IPC: 1.762 (Simulation time: 05 hr 02 min 29 sec)
Heartbeat CPU 0 instructions: 540000000 cycles: 297566953 heartbeat IPC: 0.7893 cumulative IPC: 1.719 (Simulation time: 05 hr 12 min 55 sec)
Heartbeat CPU 0 instructions: 550000002 cycles: 311318291 heartbeat IPC: 0.7272 cumulative IPC: 1.673 (Simulation time: 05 hr 24 min 10 sec)
Heartbeat CPU 0 instructions: 560000004 cycles: 315763314 heartbeat IPC: 2.25 cumulative IPC: 1.682 (Simulation time: 05 hr 29 min 16 sec)
Heartbeat CPU 0 instructions: 570000001 cycles: 318912217 heartbeat IPC: 3.176 cumulative IPC: 1.697 (Simulation time: 05 hr 33 min 49 sec)
Heartbeat CPU 0 instructions: 580000003 cycles: 322426038 heartbeat IPC: 2.846 cumulative IPC: 1.71 (Simulation time: 05 hr 38 min 24 sec)
Heartbeat CPU 0 instructions: 590000001 cycles: 326021308 heartbeat IPC: 2.781 cumulative IPC: 1.722 (Simulation time: 05 hr 43 min 01 sec)
Heartbeat CPU 0 instructions: 600000003 cycles: 329021129 heartbeat IPC: 3.334 cumulative IPC: 1.738 (Simulation time: 05 hr 47 min 34 sec)
Heartbeat CPU 0 instructions: 610000001 cycles: 332532755 heartbeat IPC: 2.848 cumulative IPC: 1.75 (Simulation time: 05 hr 52 min 12 sec)
Heartbeat CPU 0 instructions: 620000000 cycles: 336081699 heartbeat IPC: 2.818 cumulative IPC: 1.762 (Simulation time: 05 hr 56 min 56 sec)
Heartbeat CPU 0 instructions: 630000002 cycles: 339286116 heartbeat IPC: 3.121 cumulative IPC: 1.775 (Simulation time: 06 hr 01 min 29 sec)
Heartbeat CPU 0 instructions: 640000004 cycles: 343051050 heartbeat IPC: 2.656 cumulative IPC: 1.785 (Simulation time: 06 hr 06 min 21 sec)
Heartbeat CPU 0 instructions: 650000001 cycles: 346457802 heartbeat IPC: 2.935 cumulative IPC: 1.797 (Simulation time: 06 hr 11 min 05 sec)
Simulation finished CPU 0 instructions: 600000001 cycles: 333957741 cumulative IPC: 1.797 (Simulation time: 06 hr 11 min 05 sec)
Simulation complete CPU 0 instructions: 600000001 cycles: 333957741 cumulative IPC: 1.797 (Simulation time: 06 hr 11 min 05 sec)

ChampSim completed all CPUs

=== Simulation ===
CPU 0 runs traces/400.perlbench-50B.champsimtrace.xz
Region of Interest Statistics

CPU 0 cumulative IPC: 1.797 instructions: 600000001 cycles: 333957741
CPU 0 Branch Prediction Accuracy: 96.09% MPKI: 8.064 Average ROB Occupancy at Mispredict: 40.38
Branch type MPKI
BRANCH_DIRECT_JUMP: 0.0176
BRANCH_INDIRECT: 0.38
BRANCH_CONDITIONAL: 7.21
BRANCH_DIRECT_CALL: 0.0067
BRANCH_INDIRECT_CALL: 0.431
BRANCH_RETURN: 0.0161

LLC TOTAL        ACCESS:     880309 HIT:     292213 MISS:     588096
LLC LOAD         ACCESS:     376313 HIT:     100030 MISS:     276283
LLC RFO          ACCESS:      32955 HIT:      12225 MISS:      20730
LLC PREFETCH     ACCESS:     368274 HIT:      90652 MISS:     277622
LLC WRITE        ACCESS:      84514 HIT:      83088 MISS:       1426
LLC TRANSLATION  ACCESS:      18253 HIT:       6218 MISS:      12035
LLC PREFETCH REQUESTED:     368274 ISSUED:     368274 USEFUL:       3155 USELESS:        237
LLC AVERAGE MISS LATENCY: 290.9 cycles
cpu0_DTLB TOTAL        ACCESS:  146258594 HIT:  144964788 MISS:    1293806
cpu0_DTLB LOAD         ACCESS:  146258594 HIT:  144964788 MISS:    1293806
cpu0_DTLB RFO          ACCESS:          0 HIT:          0 MISS:          0
cpu0_DTLB PREFETCH     ACCESS:          0 HIT:          0 MISS:          0
cpu0_DTLB WRITE        ACCESS:          0 HIT:          0 MISS:          0
cpu0_DTLB TRANSLATION  ACCESS:          0 HIT:          0 MISS:          0
cpu0_DTLB PREFETCH REQUESTED:          0 ISSUED:          0 USEFUL:          0 USELESS:          0
cpu0_DTLB AVERAGE MISS LATENCY: 12.02 cycles
cpu0_ITLB TOTAL        ACCESS:    8992702 HIT:    8820103 MISS:     172599
cpu0_ITLB LOAD         ACCESS:    8992702 HIT:    8820103 MISS:     172599
cpu0_ITLB RFO          ACCESS:          0 HIT:          0 MISS:          0
cpu0_ITLB PREFETCH     ACCESS:          0 HIT:          0 MISS:          0
cpu0_ITLB WRITE        ACCESS:          0 HIT:          0 MISS:          0
cpu0_ITLB TRANSLATION  ACCESS:          0 HIT:          0 MISS:          0
cpu0_ITLB PREFETCH REQUESTED:          0 ISSUED:          0 USEFUL:          0 USELESS:          0
cpu0_ITLB AVERAGE MISS LATENCY: 4.083 cycles
cpu0_L1D TOTAL        ACCESS:  193012043 HIT:  190204156 MISS:    2807887
cpu0_L1D LOAD         ACCESS:  107194541 HIT:  104884234 MISS:    2310307
cpu0_L1D RFO          ACCESS:          0 HIT:          0 MISS:          0
cpu0_L1D PREFETCH     ACCESS:          0 HIT:          0 MISS:          0
cpu0_L1D WRITE        ACCESS:   85788967 HIT:   85317902 MISS:     471065
cpu0_L1D TRANSLATION  ACCESS:      28535 HIT:       2020 MISS:      26515
cpu0_L1D PREFETCH REQUESTED:          0 ISSUED:          0 USEFUL:          0 USELESS:          0
cpu0_L1D AVERAGE MISS LATENCY: 63.69 cycles
cpu0_L1I TOTAL        ACCESS:   10426935 HIT:    8711673 MISS:    1715262
cpu0_L1I LOAD         ACCESS:   10426935 HIT:    8711673 MISS:    1715262
cpu0_L1I RFO          ACCESS:          0 HIT:          0 MISS:          0
cpu0_L1I PREFETCH     ACCESS:          0 HIT:          0 MISS:          0
cpu0_L1I WRITE        ACCESS:          0 HIT:          0 MISS:          0
cpu0_L1I TRANSLATION  ACCESS:          0 HIT:          0 MISS:          0
cpu0_L1I PREFETCH REQUESTED:          0 ISSUED:          0 USEFUL:          0 USELESS:          0
cpu0_L1I AVERAGE MISS LATENCY: 11.63 cycles
cpu0_L2C TOTAL        ACCESS:    3232209 HIT:    2803680 MISS:     428529
cpu0_L2C LOAD         ACCESS:    2710499 HIT:    2334186 MISS:     376313
cpu0_L2C RFO          ACCESS:     132926 HIT:      99971 MISS:      32955
cpu0_L2C PREFETCH     ACCESS:          0 HIT:          0 MISS:          0
cpu0_L2C WRITE        ACCESS:     362322 HIT:     361314 MISS:       1008
cpu0_L2C TRANSLATION  ACCESS:      26462 HIT:       8209 MISS:      18253
cpu0_L2C PREFETCH REQUESTED:          0 ISSUED:          0 USEFUL:          0 USELESS:          0
cpu0_L2C AVERAGE MISS LATENCY: 414.7 cycles
cpu0_STLB TOTAL        ACCESS:    1009362 HIT:     982664 MISS:      26698
cpu0_STLB LOAD         ACCESS:    1009362 HIT:     982664 MISS:      26698
cpu0_STLB RFO          ACCESS:          0 HIT:          0 MISS:          0
cpu0_STLB PREFETCH     ACCESS:          0 HIT:          0 MISS:          0
cpu0_STLB WRITE        ACCESS:          0 HIT:          0 MISS:          0
cpu0_STLB TRANSLATION  ACCESS:          0 HIT:          0 MISS:          0
cpu0_STLB PREFETCH REQUESTED:          0 ISSUED:          0 USEFUL:          0 USELESS:          0
cpu0_STLB AVERAGE MISS LATENCY: 360.1 cycles

DRAM Statistics

Channel 0 RQ ROW_BUFFER_HIT:      92122
  ROW_BUFFER_MISS:     345968
 AVG DBUS CONGESTED CYCLE: 3.846
WQ ROW_BUFFER_HIT: Channel 0 
  ROW_BUFFER_MISS:       7882
  FULL:      41475
