WARNING: physical memory size is smaller than virtual memory size.

*** ChampSim Multicore Out-of-Order Simulator ***
Warmup Instructions: 50000000
Simulation Instructions: 600000000
Number of CPUs: 1
Page size: 4096

Initialize SIGNATURE TABLE
ST_SET: 1
ST_WAY: 256
ST_TAG_BIT: 16
ST_TAG_MASK: ffff

Initialize PATTERN TABLE
PT_SET: 512
PT_WAY: 4
SIG_DELTA_BIT: 7
C_SIG_BIT: 4
C_DELTA_BIT: 4

Initialize PREFETCH FILTER
FILTER_SET: 1024
Off-chip DRAM Size: 4 GiB Channels: 1 Width: 64-bit Data Race: 3200 MT/s
Heartbeat CPU 0 instructions: 10000001 cycles: 2500318 heartbeat IPC: 3.999 cumulative IPC: 3.999 (Simulation time: 00 hr 03 min 40 sec)
Heartbeat CPU 0 instructions: 20000002 cycles: 5037108 heartbeat IPC: 3.942 cumulative IPC: 3.971 (Simulation time: 00 hr 07 min 26 sec)
Heartbeat CPU 0 instructions: 30000002 cycles: 7537108 heartbeat IPC: 4 cumulative IPC: 3.98 (Simulation time: 00 hr 10 min 51 sec)
Heartbeat CPU 0 instructions: 40000002 cycles: 10037108 heartbeat IPC: 4 cumulative IPC: 3.985 (Simulation time: 00 hr 14 min 20 sec)
Heartbeat CPU 0 instructions: 50000002 cycles: 12537108 heartbeat IPC: 4 cumulative IPC: 3.988 (Simulation time: 00 hr 17 min 50 sec)
Warmup finished CPU 0 instructions: 50000002 cycles: 12537109 cumulative IPC: 3.988 (Simulation time: 00 hr 17 min 50 sec)
Warmup complete CPU 0 instructions: 50000002 cycles: 12537109 cumulative IPC: 3.988 (Simulation time: 00 hr 17 min 50 sec)
Heartbeat CPU 0 instructions: 60000000 cycles: 17194854 heartbeat IPC: 2.147 cumulative IPC: 2.147 (Simulation time: 00 hr 22 min 59 sec)
Heartbeat CPU 0 instructions: 70000004 cycles: 21503586 heartbeat IPC: 2.321 cumulative IPC: 2.231 (Simulation time: 00 hr 28 min 00 sec)
Heartbeat CPU 0 instructions: 80000001 cycles: 26134190 heartbeat IPC: 2.16 cumulative IPC: 2.206 (Simulation time: 00 hr 33 min 08 sec)
Heartbeat CPU 0 instructions: 90000001 cycles: 30282000 heartbeat IPC: 2.411 cumulative IPC: 2.254 (Simulation time: 00 hr 37 min 59 sec)
Heartbeat CPU 0 instructions: 100000000 cycles: 34378317 heartbeat IPC: 2.441 cumulative IPC: 2.289 (Simulation time: 00 hr 42 min 51 sec)
Heartbeat CPU 0 instructions: 110000000 cycles: 38628590 heartbeat IPC: 2.353 cumulative IPC: 2.3 (Simulation time: 00 hr 47 min 47 sec)
Heartbeat CPU 0 instructions: 120000001 cycles: 42657907 heartbeat IPC: 2.482 cumulative IPC: 2.324 (Simulation time: 00 hr 52 min 47 sec)
Heartbeat CPU 0 instructions: 130000001 cycles: 46424781 heartbeat IPC: 2.655 cumulative IPC: 2.361 (Simulation time: 00 hr 57 min 30 sec)
Heartbeat CPU 0 instructions: 140000001 cycles: 50622675 heartbeat IPC: 2.382 cumulative IPC: 2.363 (Simulation time: 01 hr 02 min 27 sec)
Heartbeat CPU 0 instructions: 150000001 cycles: 54857901 heartbeat IPC: 2.361 cumulative IPC: 2.363 (Simulation time: 01 hr 07 min 24 sec)
Heartbeat CPU 0 instructions: 160000004 cycles: 59324485 heartbeat IPC: 2.239 cumulative IPC: 2.351 (Simulation time: 01 hr 12 min 30 sec)
Heartbeat CPU 0 instructions: 170000004 cycles: 67474072 heartbeat IPC: 1.227 cumulative IPC: 2.184 (Simulation time: 01 hr 20 min 06 sec)
Heartbeat CPU 0 instructions: 180000004 cycles: 76103144 heartbeat IPC: 1.159 cumulative IPC: 2.045 (Simulation time: 01 hr 28 min 20 sec)
Heartbeat CPU 0 instructions: 190000001 cycles: 87037323 heartbeat IPC: 0.9146 cumulative IPC: 1.879 (Simulation time: 01 hr 37 min 50 sec)
Heartbeat CPU 0 instructions: 200000004 cycles: 90851635 heartbeat IPC: 2.622 cumulative IPC: 1.915 (Simulation time: 01 hr 42 min 32 sec)
Heartbeat CPU 0 instructions: 210000001 cycles: 94798385 heartbeat IPC: 2.534 cumulative IPC: 1.945 (Simulation time: 01 hr 47 min 20 sec)
Heartbeat CPU 0 instructions: 220000000 cycles: 98773020 heartbeat IPC: 2.516 cumulative IPC: 1.971 (Simulation time: 01 hr 52 min 09 sec)
Heartbeat CPU 0 instructions: 230000002 cycles: 103499009 heartbeat IPC: 2.116 cumulative IPC: 1.979 (Simulation time: 01 hr 57 min 26 sec)
Heartbeat CPU 0 instructions: 240000000 cycles: 107731856 heartbeat IPC: 2.362 cumulative IPC: 1.996 (Simulation time: 02 hr 02 min 36 sec)
Heartbeat CPU 0 instructions: 250000000 cycles: 112086848 heartbeat IPC: 2.296 cumulative IPC: 2.009 (Simulation time: 02 hr 07 min 34 sec)
Heartbeat CPU 0 instructions: 260000000 cycles: 116299736 heartbeat IPC: 2.374 cumulative IPC: 2.024 (Simulation time: 02 hr 12 min 34 sec)
Heartbeat CPU 0 instructions: 270000002 cycles: 120184959 heartbeat IPC: 2.574 cumulative IPC: 2.044 (Simulation time: 02 hr 17 min 16 sec)
Heartbeat CPU 0 instructions: 280000002 cycles: 124379964 heartbeat IPC: 2.384 cumulative IPC: 2.056 (Simulation time: 02 hr 22 min 07 sec)
Heartbeat CPU 0 instructions: 290000001 cycles: 128301786 heartbeat IPC: 2.55 cumulative IPC: 2.073 (Simulation time: 02 hr 26 min 54 sec)
Heartbeat CPU 0 instructions: 300000003 cycles: 132176618 heartbeat IPC: 2.581 cumulative IPC: 2.09 (Simulation time: 02 hr 31 min 49 sec)
Heartbeat CPU 0 instructions: 310000001 cycles: 136359592 heartbeat IPC: 2.391 cumulative IPC: 2.1 (Simulation time: 02 hr 36 min 44 sec)
Heartbeat CPU 0 instructions: 320000003 cycles: 140484767 heartbeat IPC: 2.424 cumulative IPC: 2.11 (Simulation time: 02 hr 41 min 39 sec)
Heartbeat CPU 0 instructions: 330000003 cycles: 144953251 heartbeat IPC: 2.238 cumulative IPC: 2.115 (Simulation time: 02 hr 46 min 43 sec)
Heartbeat CPU 0 instructions: 340000000 cycles: 153335950 heartbeat IPC: 1.193 cumulative IPC: 2.06 (Simulation time: 02 hr 54 min 27 sec)
Heartbeat CPU 0 instructions: 350000000 cycles: 162696526 heartbeat IPC: 1.068 cumulative IPC: 1.998 (Simulation time: 03 hr 02 min 54 sec)
Heartbeat CPU 0 instructions: 360000004 cycles: 173632265 heartbeat IPC: 0.9144 cumulative IPC: 1.924 (Simulation time: 03 hr 12 min 23 sec)
Heartbeat CPU 0 instructions: 370000000 cycles: 177099128 heartbeat IPC: 2.884 cumulative IPC: 1.945 (Simulation time: 03 hr 16 min 50 sec)
Heartbeat CPU 0 instructions: 380000001 cycles: 180542653 heartbeat IPC: 2.904 cumulative IPC: 1.964 (Simulation time: 03 hr 21 min 19 sec)
Heartbeat CPU 0 instructions: 390000004 cycles: 184300911 heartbeat IPC: 2.661 cumulative IPC: 1.979 (Simulation time: 03 hr 26 min 01 sec)
Heartbeat CPU 0 instructions: 400000004 cycles: 188119255 heartbeat IPC: 2.619 cumulative IPC: 1.993 (Simulation time: 03 hr 30 min 40 sec)
Heartbeat CPU 0 instructions: 410000001 cycles: 191805048 heartbeat IPC: 2.713 cumulative IPC: 2.008 (Simulation time: 03 hr 35 min 16 sec)
Heartbeat CPU 0 instructions: 420000003 cycles: 195899966 heartbeat IPC: 2.442 cumulative IPC: 2.018 (Simulation time: 03 hr 40 min 08 sec)
Heartbeat CPU 0 instructions: 430000001 cycles: 199597293 heartbeat IPC: 2.705 cumulative IPC: 2.031 (Simulation time: 03 hr 45 min 05 sec)
Heartbeat CPU 0 instructions: 440000004 cycles: 203718187 heartbeat IPC: 2.427 cumulative IPC: 2.04 (Simulation time: 03 hr 49 min 57 sec)
Heartbeat CPU 0 instructions: 450000002 cycles: 207480421 heartbeat IPC: 2.658 cumulative IPC: 2.052 (Simulation time: 03 hr 54 min 36 sec)
Heartbeat CPU 0 instructions: 460000000 cycles: 211179440 heartbeat IPC: 2.703 cumulative IPC: 2.064 (Simulation time: 03 hr 59 min 13 sec)
Heartbeat CPU 0 instructions: 470000000 cycles: 214668235 heartbeat IPC: 2.866 cumulative IPC: 2.078 (Simulation time: 04 hr 03 min 45 sec)
Heartbeat CPU 0 instructions: 480000003 cycles: 218543674 heartbeat IPC: 2.58 cumulative IPC: 2.087 (Simulation time: 04 hr 08 min 27 sec)
Heartbeat CPU 0 instructions: 490000000 cycles: 222192644 heartbeat IPC: 2.74 cumulative IPC: 2.099 (Simulation time: 04 hr 13 min 04 sec)
Heartbeat CPU 0 instructions: 500000000 cycles: 225909391 heartbeat IPC: 2.691 cumulative IPC: 2.109 (Simulation time: 04 hr 17 min 42 sec)
Heartbeat CPU 0 instructions: 510000003 cycles: 229644052 heartbeat IPC: 2.678 cumulative IPC: 2.119 (Simulation time: 04 hr 22 min 26 sec)
Heartbeat CPU 0 instructions: 520000001 cycles: 233091270 heartbeat IPC: 2.901 cumulative IPC: 2.131 (Simulation time: 04 hr 26 min 55 sec)
Heartbeat CPU 0 instructions: 530000002 cycles: 236802854 heartbeat IPC: 2.694 cumulative IPC: 2.14 (Simulation time: 04 hr 31 min 29 sec)
Heartbeat CPU 0 instructions: 540000000 cycles: 240354371 heartbeat IPC: 2.816 cumulative IPC: 2.151 (Simulation time: 04 hr 36 min 03 sec)
Heartbeat CPU 0 instructions: 550000001 cycles: 244079750 heartbeat IPC: 2.684 cumulative IPC: 2.159 (Simulation time: 04 hr 40 min 41 sec)
Heartbeat CPU 0 instructions: 560000000 cycles: 248144285 heartbeat IPC: 2.46 cumulative IPC: 2.165 (Simulation time: 04 hr 45 min 33 sec)
Heartbeat CPU 0 instructions: 570000004 cycles: 254591937 heartbeat IPC: 1.551 cumulative IPC: 2.148 (Simulation time: 04 hr 52 min 00 sec)
Heartbeat CPU 0 instructions: 580000003 cycles: 262298639 heartbeat IPC: 1.298 cumulative IPC: 2.122 (Simulation time: 04 hr 59 min 39 sec)
Heartbeat CPU 0 instructions: 590000002 cycles: 276131877 heartbeat IPC: 0.7229 cumulative IPC: 2.049 (Simulation time: 05 hr 11 min 06 sec)
Heartbeat CPU 0 instructions: 600000000 cycles: 279973067 heartbeat IPC: 2.603 cumulative IPC: 2.057 (Simulation time: 05 hr 15 min 48 sec)
Heartbeat CPU 0 instructions: 610000000 cycles: 283853644 heartbeat IPC: 2.577 cumulative IPC: 2.064 (Simulation time: 05 hr 20 min 28 sec)
Heartbeat CPU 0 instructions: 620000001 cycles: 287296161 heartbeat IPC: 2.905 cumulative IPC: 2.075 (Simulation time: 05 hr 25 min 11 sec)
Heartbeat CPU 0 instructions: 630000002 cycles: 291587662 heartbeat IPC: 2.33 cumulative IPC: 2.078 (Simulation time: 05 hr 30 min 07 sec)
Heartbeat CPU 0 instructions: 640000001 cycles: 295490901 heartbeat IPC: 2.562 cumulative IPC: 2.085 (Simulation time: 05 hr 34 min 51 sec)
Heartbeat CPU 0 instructions: 650000000 cycles: 299252969 heartbeat IPC: 2.658 cumulative IPC: 2.093 (Simulation time: 05 hr 39 min 48 sec)
Simulation finished CPU 0 instructions: 600000001 cycles: 286715862 cumulative IPC: 2.093 (Simulation time: 05 hr 39 min 48 sec)
Simulation complete CPU 0 instructions: 600000001 cycles: 286715862 cumulative IPC: 2.093 (Simulation time: 05 hr 39 min 48 sec)

ChampSim completed all CPUs

=== Simulation ===
CPU 0 runs traces/400.perlbench-41B.champsimtrace.xz
Region of Interest Statistics

CPU 0 cumulative IPC: 2.093 instructions: 600000001 cycles: 286715862
CPU 0 Branch Prediction Accuracy: 96.56% MPKI: 7.112 Average ROB Occupancy at Mispredict: 47.17
Branch type MPKI
BRANCH_DIRECT_JUMP: 0.0123
BRANCH_INDIRECT: 0.323
BRANCH_CONDITIONAL: 6.56
BRANCH_DIRECT_CALL: 0.0043
BRANCH_INDIRECT_CALL: 0.2
BRANCH_RETURN: 0.00828

LLC TOTAL        ACCESS:     719585 HIT:     278517 MISS:     441068
LLC LOAD         ACCESS:     309532 HIT:     126297 MISS:     183235
LLC RFO          ACCESS:      25152 HIT:      10108 MISS:      15044
LLC PREFETCH     ACCESS:     305044 HIT:     107336 MISS:     197708
LLC WRITE        ACCESS:      64130 HIT:      32150 MISS:      31980
LLC TRANSLATION  ACCESS:      15727 HIT:       2626 MISS:      13101
LLC PREFETCH REQUESTED:     305044 ISSUED:     305044 USEFUL:       2060 USELESS:        290
LLC AVERAGE MISS LATENCY: 295.7 cycles
cpu0_DTLB TOTAL        ACCESS:  141882875 HIT:  141197208 MISS:     685667
cpu0_DTLB LOAD         ACCESS:  141882875 HIT:  141197208 MISS:     685667
cpu0_DTLB RFO          ACCESS:          0 HIT:          0 MISS:          0
cpu0_DTLB PREFETCH     ACCESS:          0 HIT:          0 MISS:          0
cpu0_DTLB WRITE        ACCESS:          0 HIT:          0 MISS:          0
cpu0_DTLB TRANSLATION  ACCESS:          0 HIT:          0 MISS:          0
cpu0_DTLB PREFETCH REQUESTED:          0 ISSUED:          0 USEFUL:          0 USELESS:          0
cpu0_DTLB AVERAGE MISS LATENCY: 18.3 cycles
cpu0_ITLB TOTAL        ACCESS:    4858256 HIT:    4804955 MISS:      53301
cpu0_ITLB LOAD         ACCESS:    4858256 HIT:    4804955 MISS:      53301
cpu0_ITLB RFO          ACCESS:          0 HIT:          0 MISS:          0
cpu0_ITLB PREFETCH     ACCESS:          0 HIT:          0 MISS:          0
cpu0_ITLB WRITE        ACCESS:          0 HIT:          0 MISS:          0
cpu0_ITLB TRANSLATION  ACCESS:          0 HIT:          0 MISS:          0
cpu0_ITLB PREFETCH REQUESTED:          0 ISSUED:          0 USEFUL:          0 USELESS:          0
cpu0_ITLB AVERAGE MISS LATENCY: 7.641 cycles
cpu0_L1D TOTAL        ACCESS:  188561832 HIT:  187231616 MISS:    1330216
cpu0_L1D LOAD         ACCESS:  105194161 HIT:  104165320 MISS:    1028841
cpu0_L1D RFO          ACCESS:          0 HIT:          0 MISS:          0
cpu0_L1D PREFETCH     ACCESS:          0 HIT:          0 MISS:          0
cpu0_L1D WRITE        ACCESS:   83343203 HIT:   83064689 MISS:     278514
cpu0_L1D TRANSLATION  ACCESS:      24468 HIT:       1607 MISS:      22861
cpu0_L1D PREFETCH REQUESTED:          0 ISSUED:          0 USEFUL:          0 USELESS:          0
cpu0_L1D AVERAGE MISS LATENCY: 100.8 cycles
cpu0_L1I TOTAL        ACCESS:    5595922 HIT:    4851785 MISS:     744137
cpu0_L1I LOAD         ACCESS:    5595922 HIT:    4851785 MISS:     744137
cpu0_L1I RFO          ACCESS:          0 HIT:          0 MISS:          0
cpu0_L1I PREFETCH     ACCESS:          0 HIT:          0 MISS:          0
cpu0_L1I WRITE        ACCESS:          0 HIT:          0 MISS:          0
cpu0_L1I TRANSLATION  ACCESS:          0 HIT:          0 MISS:          0
cpu0_L1I PREFETCH REQUESTED:          0 ISSUED:          0 USEFUL:          0 USELESS:          0
cpu0_L1I AVERAGE MISS LATENCY: 12.46 cycles
cpu0_L2C TOTAL        ACCESS:    1380814 HIT:    1029528 MISS:     351286
cpu0_L2C LOAD         ACCESS:    1124792 HIT:     815260 MISS:     309532
cpu0_L2C RFO          ACCESS:      63772 HIT:      38620 MISS:      25152
cpu0_L2C PREFETCH     ACCESS:          0 HIT:          0 MISS:          0
cpu0_L2C WRITE        ACCESS:     169461 HIT:     168586 MISS:        875
cpu0_L2C TRANSLATION  ACCESS:      22789 HIT:       7062 MISS:      15727
cpu0_L2C PREFETCH REQUESTED:          0 ISSUED:          0 USEFUL:          0 USELESS:          0
cpu0_L2C AVERAGE MISS LATENCY: 387.7 cycles
cpu0_STLB TOTAL        ACCESS:     507248 HIT:     484452 MISS:      22796
cpu0_STLB LOAD         ACCESS:     507248 HIT:     484452 MISS:      22796
cpu0_STLB RFO          ACCESS:          0 HIT:          0 MISS:          0
cpu0_STLB PREFETCH     ACCESS:          0 HIT:          0 MISS:          0
cpu0_STLB WRITE        ACCESS:          0 HIT:          0 MISS:          0
cpu0_STLB TRANSLATION  ACCESS:          0 HIT:          0 MISS:          0
cpu0_STLB PREFETCH REQUESTED:          0 ISSUED:          0 USEFUL:          0 USELESS:          0
cpu0_STLB AVERAGE MISS LATENCY: 436.6 cycles

DRAM Statistics

Channel 0 RQ ROW_BUFFER_HIT:      53509
  ROW_BUFFER_MISS:     257567
 AVG DBUS CONGESTED CYCLE: 3.864
WQ ROW_BUFFER_HIT: Channel 0 
  ROW_BUFFER_MISS:       6241
  FULL:      28324
