WARNING: physical memory size is smaller than virtual memory size.

*** ChampSim Multicore Out-of-Order Simulator ***
Warmup Instructions: 50000000
Simulation Instructions: 600000000
Number of CPUs: 1
Page size: 4096

Off-chip DRAM Size: 4 GiB Channels: 1 Width: 64-bit Data Race: 3200 MT/s
Heartbeat CPU 0 instructions: 10000000 cycles: 2500062 heartbeat IPC: 4 cumulative IPC: 4 (Simulation time: 00 hr 03 min 25 sec)
Heartbeat CPU 0 instructions: 20000000 cycles: 5000062 heartbeat IPC: 4 cumulative IPC: 4 (Simulation time: 00 hr 06 min 51 sec)
Heartbeat CPU 0 instructions: 30000000 cycles: 7500062 heartbeat IPC: 4 cumulative IPC: 4 (Simulation time: 00 hr 10 min 12 sec)
Heartbeat CPU 0 instructions: 40000000 cycles: 10000062 heartbeat IPC: 4 cumulative IPC: 4 (Simulation time: 00 hr 13 min 36 sec)
Heartbeat CPU 0 instructions: 50000000 cycles: 12500062 heartbeat IPC: 4 cumulative IPC: 4 (Simulation time: 00 hr 17 min 03 sec)
Warmup finished CPU 0 instructions: 50000000 cycles: 12500063 cumulative IPC: 4 (Simulation time: 00 hr 17 min 03 sec)
Warmup complete CPU 0 instructions: 50000000 cycles: 12500063 cumulative IPC: 4 (Simulation time: 00 hr 17 min 03 sec)
Heartbeat CPU 0 instructions: 60000002 cycles: 16473656 heartbeat IPC: 2.517 cumulative IPC: 2.517 (Simulation time: 00 hr 21 min 49 sec)
Heartbeat CPU 0 instructions: 70000003 cycles: 20821480 heartbeat IPC: 2.3 cumulative IPC: 2.403 (Simulation time: 00 hr 26 min 42 sec)
Heartbeat CPU 0 instructions: 80000003 cycles: 25326044 heartbeat IPC: 2.22 cumulative IPC: 2.339 (Simulation time: 00 hr 31 min 40 sec)
Heartbeat CPU 0 instructions: 90000000 cycles: 29031345 heartbeat IPC: 2.699 cumulative IPC: 2.42 (Simulation time: 00 hr 36 min 12 sec)
Heartbeat CPU 0 instructions: 100000003 cycles: 32962485 heartbeat IPC: 2.544 cumulative IPC: 2.444 (Simulation time: 00 hr 40 min 51 sec)
Heartbeat CPU 0 instructions: 110000002 cycles: 37078382 heartbeat IPC: 2.43 cumulative IPC: 2.441 (Simulation time: 00 hr 45 min 34 sec)
Heartbeat CPU 0 instructions: 120000001 cycles: 40802705 heartbeat IPC: 2.685 cumulative IPC: 2.473 (Simulation time: 00 hr 50 min 10 sec)
Heartbeat CPU 0 instructions: 130000003 cycles: 44613365 heartbeat IPC: 2.624 cumulative IPC: 2.491 (Simulation time: 00 hr 54 min 49 sec)
Heartbeat CPU 0 instructions: 140000002 cycles: 48751073 heartbeat IPC: 2.417 cumulative IPC: 2.483 (Simulation time: 00 hr 59 min 36 sec)
Heartbeat CPU 0 instructions: 150000001 cycles: 52814799 heartbeat IPC: 2.461 cumulative IPC: 2.48 (Simulation time: 01 hr 04 min 19 sec)
Heartbeat CPU 0 instructions: 160000000 cycles: 56494373 heartbeat IPC: 2.718 cumulative IPC: 2.5 (Simulation time: 01 hr 08 min 48 sec)
Heartbeat CPU 0 instructions: 170000001 cycles: 60694425 heartbeat IPC: 2.381 cumulative IPC: 2.49 (Simulation time: 01 hr 13 min 36 sec)
Heartbeat CPU 0 instructions: 180000001 cycles: 64180858 heartbeat IPC: 2.868 cumulative IPC: 2.515 (Simulation time: 01 hr 18 min 03 sec)
Heartbeat CPU 0 instructions: 190000002 cycles: 67781849 heartbeat IPC: 2.777 cumulative IPC: 2.532 (Simulation time: 01 hr 22 min 36 sec)
Heartbeat CPU 0 instructions: 200000002 cycles: 71595975 heartbeat IPC: 2.622 cumulative IPC: 2.538 (Simulation time: 01 hr 27 min 15 sec)
Heartbeat CPU 0 instructions: 210000000 cycles: 75248919 heartbeat IPC: 2.738 cumulative IPC: 2.55 (Simulation time: 01 hr 31 min 43 sec)
Heartbeat CPU 0 instructions: 220000001 cycles: 79148885 heartbeat IPC: 2.564 cumulative IPC: 2.551 (Simulation time: 01 hr 36 min 24 sec)
Heartbeat CPU 0 instructions: 230000002 cycles: 83027019 heartbeat IPC: 2.579 cumulative IPC: 2.552 (Simulation time: 01 hr 41 min 01 sec)
Heartbeat CPU 0 instructions: 240000001 cycles: 87258455 heartbeat IPC: 2.363 cumulative IPC: 2.542 (Simulation time: 01 hr 45 min 53 sec)
Heartbeat CPU 0 instructions: 250000003 cycles: 91862686 heartbeat IPC: 2.172 cumulative IPC: 2.52 (Simulation time: 01 hr 51 min 00 sec)
Heartbeat CPU 0 instructions: 260000000 cycles: 95689786 heartbeat IPC: 2.613 cumulative IPC: 2.524 (Simulation time: 01 hr 55 min 38 sec)
Heartbeat CPU 0 instructions: 270000003 cycles: 102909916 heartbeat IPC: 1.385 cumulative IPC: 2.433 (Simulation time: 02 hr 02 min 29 sec)
Heartbeat CPU 0 instructions: 280000000 cycles: 115728894 heartbeat IPC: 0.7801 cumulative IPC: 2.228 (Simulation time: 02 hr 13 min 05 sec)
Heartbeat CPU 0 instructions: 290000000 cycles: 127846913 heartbeat IPC: 0.8252 cumulative IPC: 2.081 (Simulation time: 02 hr 23 min 17 sec)
Heartbeat CPU 0 instructions: 300000003 cycles: 135816154 heartbeat IPC: 1.255 cumulative IPC: 2.027 (Simulation time: 02 hr 30 min 57 sec)
Heartbeat CPU 0 instructions: 310000004 cycles: 147842359 heartbeat IPC: 0.8315 cumulative IPC: 1.921 (Simulation time: 02 hr 41 min 19 sec)
Heartbeat CPU 0 instructions: 320000004 cycles: 153243006 heartbeat IPC: 1.852 cumulative IPC: 1.918 (Simulation time: 02 hr 47 min 12 sec)
Heartbeat CPU 0 instructions: 330000000 cycles: 157292637 heartbeat IPC: 2.469 cumulative IPC: 1.934 (Simulation time: 02 hr 52 min 03 sec)
Heartbeat CPU 0 instructions: 340000001 cycles: 161309209 heartbeat IPC: 2.49 cumulative IPC: 1.949 (Simulation time: 02 hr 56 min 49 sec)
Heartbeat CPU 0 instructions: 350000004 cycles: 165319294 heartbeat IPC: 2.494 cumulative IPC: 1.963 (Simulation time: 03 hr 01 min 37 sec)
Heartbeat CPU 0 instructions: 360000003 cycles: 169042255 heartbeat IPC: 2.686 cumulative IPC: 1.98 (Simulation time: 03 hr 06 min 15 sec)
Heartbeat CPU 0 instructions: 370000001 cycles: 172741866 heartbeat IPC: 2.703 cumulative IPC: 1.997 (Simulation time: 03 hr 10 min 52 sec)
Heartbeat CPU 0 instructions: 380000004 cycles: 176396589 heartbeat IPC: 2.736 cumulative IPC: 2.013 (Simulation time: 03 hr 15 min 29 sec)
Heartbeat CPU 0 instructions: 390000002 cycles: 180485748 heartbeat IPC: 2.445 cumulative IPC: 2.024 (Simulation time: 03 hr 20 min 21 sec)
Heartbeat CPU 0 instructions: 400000000 cycles: 184890116 heartbeat IPC: 2.27 cumulative IPC: 2.03 (Simulation time: 03 hr 25 min 24 sec)
Heartbeat CPU 0 instructions: 410000000 cycles: 193533529 heartbeat IPC: 1.157 cumulative IPC: 1.989 (Simulation time: 03 hr 33 min 13 sec)
Heartbeat CPU 0 instructions: 420000003 cycles: 206468712 heartbeat IPC: 0.7731 cumulative IPC: 1.908 (Simulation time: 03 hr 43 min 56 sec)
Heartbeat CPU 0 instructions: 430000000 cycles: 214508885 heartbeat IPC: 1.244 cumulative IPC: 1.881 (Simulation time: 03 hr 51 min 50 sec)
Heartbeat CPU 0 instructions: 440000004 cycles: 223152976 heartbeat IPC: 1.157 cumulative IPC: 1.851 (Simulation time: 03 hr 59 min 57 sec)
Heartbeat CPU 0 instructions: 450000000 cycles: 231131933 heartbeat IPC: 1.253 cumulative IPC: 1.83 (Simulation time: 04 hr 07 min 34 sec)
Heartbeat CPU 0 instructions: 460000002 cycles: 245529746 heartbeat IPC: 0.6946 cumulative IPC: 1.759 (Simulation time: 04 hr 19 min 18 sec)
Heartbeat CPU 0 instructions: 470000003 cycles: 256232526 heartbeat IPC: 0.9343 cumulative IPC: 1.723 (Simulation time: 04 hr 28 min 39 sec)
Heartbeat CPU 0 instructions: 480000003 cycles: 260530112 heartbeat IPC: 2.327 cumulative IPC: 1.734 (Simulation time: 04 hr 33 min 43 sec)
Heartbeat CPU 0 instructions: 490000001 cycles: 264376464 heartbeat IPC: 2.6 cumulative IPC: 1.747 (Simulation time: 04 hr 38 min 28 sec)
Heartbeat CPU 0 instructions: 500000002 cycles: 268269144 heartbeat IPC: 2.569 cumulative IPC: 1.759 (Simulation time: 04 hr 43 min 12 sec)
Heartbeat CPU 0 instructions: 510000000 cycles: 272135395 heartbeat IPC: 2.586 cumulative IPC: 1.772 (Simulation time: 04 hr 47 min 56 sec)
Heartbeat CPU 0 instructions: 520000000 cycles: 276574222 heartbeat IPC: 2.253 cumulative IPC: 1.78 (Simulation time: 04 hr 53 min 00 sec)
Heartbeat CPU 0 instructions: 530000001 cycles: 290080584 heartbeat IPC: 0.7404 cumulative IPC: 1.729 (Simulation time: 05 hr 03 min 58 sec)
Heartbeat CPU 0 instructions: 540000000 cycles: 303522291 heartbeat IPC: 0.744 cumulative IPC: 1.684 (Simulation time: 05 hr 15 min 02 sec)
Heartbeat CPU 0 instructions: 550000004 cycles: 318357163 heartbeat IPC: 0.6741 cumulative IPC: 1.635 (Simulation time: 05 hr 26 min 54 sec)
Heartbeat CPU 0 instructions: 560000004 cycles: 323069243 heartbeat IPC: 2.122 cumulative IPC: 1.642 (Simulation time: 05 hr 32 min 26 sec)
Heartbeat CPU 0 instructions: 570000001 cycles: 326197596 heartbeat IPC: 3.197 cumulative IPC: 1.658 (Simulation time: 05 hr 36 min 44 sec)
Heartbeat CPU 0 instructions: 580000003 cycles: 329758084 heartbeat IPC: 2.809 cumulative IPC: 1.671 (Simulation time: 05 hr 41 min 14 sec)
Heartbeat CPU 0 instructions: 590000002 cycles: 333391576 heartbeat IPC: 2.752 cumulative IPC: 1.683 (Simulation time: 05 hr 45 min 47 sec)
Heartbeat CPU 0 instructions: 600000003 cycles: 336458031 heartbeat IPC: 3.261 cumulative IPC: 1.698 (Simulation time: 05 hr 50 min 07 sec)
Heartbeat CPU 0 instructions: 610000001 cycles: 339964988 heartbeat IPC: 2.851 cumulative IPC: 1.71 (Simulation time: 05 hr 54 min 38 sec)
Heartbeat CPU 0 instructions: 620000000 cycles: 343978991 heartbeat IPC: 2.491 cumulative IPC: 1.72 (Simulation time: 05 hr 59 min 28 sec)
Heartbeat CPU 0 instructions: 630000002 cycles: 347346543 heartbeat IPC: 2.97 cumulative IPC: 1.732 (Simulation time: 06 hr 03 min 53 sec)
Heartbeat CPU 0 instructions: 640000004 cycles: 351335941 heartbeat IPC: 2.507 cumulative IPC: 1.741 (Simulation time: 06 hr 08 min 40 sec)
Heartbeat CPU 0 instructions: 650000001 cycles: 355147613 heartbeat IPC: 2.624 cumulative IPC: 1.751 (Simulation time: 06 hr 13 min 18 sec)
Simulation finished CPU 0 instructions: 600000001 cycles: 342647551 cumulative IPC: 1.751 (Simulation time: 06 hr 13 min 18 sec)
Simulation complete CPU 0 instructions: 600000001 cycles: 342647551 cumulative IPC: 1.751 (Simulation time: 06 hr 13 min 18 sec)

ChampSim completed all CPUs

=== Simulation ===
CPU 0 runs traces/400.perlbench-50B.champsimtrace.xz
Region of Interest Statistics

CPU 0 cumulative IPC: 1.751 instructions: 600000001 cycles: 342647551
CPU 0 Branch Prediction Accuracy: 96.2% MPKI: 7.839 Average ROB Occupancy at Mispredict: 43.75
Branch type MPKI
BRANCH_DIRECT_JUMP: 0.0176
BRANCH_INDIRECT: 0.38
BRANCH_CONDITIONAL: 6.99
BRANCH_DIRECT_CALL: 0.0067
BRANCH_INDIRECT_CALL: 0.431
BRANCH_RETURN: 0.0161

LLC TOTAL        ACCESS:     835374 HIT:     201419 MISS:     633955
LLC LOAD         ACCESS:     376374 HIT:     127888 MISS:     248486
LLC RFO          ACCESS:      32826 HIT:       5271 MISS:      27555
LLC PREFETCH     ACCESS:     324386 HIT:      58132 MISS:     266254
LLC WRITE        ACCESS:      83618 HIT:       9584 MISS:      74034
LLC TRANSLATION  ACCESS:      18170 HIT:        544 MISS:      17626
LLC PREFETCH REQUESTED:     324433 ISSUED:     324386 USEFUL:      87743 USELESS:     153326
LLC AVERAGE MISS LATENCY: 633.1 cycles
cpu0_DTLB TOTAL        ACCESS:  146436580 HIT:  145133432 MISS:    1303148
cpu0_DTLB LOAD         ACCESS:  146436580 HIT:  145133432 MISS:    1303148
cpu0_DTLB RFO          ACCESS:          0 HIT:          0 MISS:          0
cpu0_DTLB PREFETCH     ACCESS:          0 HIT:          0 MISS:          0
cpu0_DTLB WRITE        ACCESS:          0 HIT:          0 MISS:          0
cpu0_DTLB TRANSLATION  ACCESS:          0 HIT:          0 MISS:          0
cpu0_DTLB PREFETCH REQUESTED:          0 ISSUED:          0 USEFUL:          0 USELESS:          0
cpu0_DTLB AVERAGE MISS LATENCY: 16.17 cycles
cpu0_ITLB TOTAL        ACCESS:    8986132 HIT:    8801387 MISS:     184745
cpu0_ITLB LOAD         ACCESS:    8986132 HIT:    8801387 MISS:     184745
cpu0_ITLB RFO          ACCESS:          0 HIT:          0 MISS:          0
cpu0_ITLB PREFETCH     ACCESS:          0 HIT:          0 MISS:          0
cpu0_ITLB WRITE        ACCESS:          0 HIT:          0 MISS:          0
cpu0_ITLB TRANSLATION  ACCESS:          0 HIT:          0 MISS:          0
cpu0_ITLB PREFETCH REQUESTED:          0 ISSUED:          0 USEFUL:          0 USELESS:          0
cpu0_ITLB AVERAGE MISS LATENCY: 4.494 cycles
cpu0_L1D TOTAL        ACCESS:  193249474 HIT:  190401558 MISS:    2847916
cpu0_L1D LOAD         ACCESS:  107402297 HIT:  105064221 MISS:    2338076
cpu0_L1D RFO          ACCESS:          0 HIT:          0 MISS:          0
cpu0_L1D PREFETCH     ACCESS:          0 HIT:          0 MISS:          0
cpu0_L1D WRITE        ACCESS:   85818649 HIT:   85335329 MISS:     483320
cpu0_L1D TRANSLATION  ACCESS:      28528 HIT:       2008 MISS:      26520
cpu0_L1D PREFETCH REQUESTED:          0 ISSUED:          0 USEFUL:          0 USELESS:          0
cpu0_L1D AVERAGE MISS LATENCY: 66.89 cycles
cpu0_L1I TOTAL        ACCESS:   10420156 HIT:    8657137 MISS:    1763019
cpu0_L1I LOAD         ACCESS:   10420156 HIT:    8657137 MISS:    1763019
cpu0_L1I RFO          ACCESS:          0 HIT:          0 MISS:          0
cpu0_L1I PREFETCH     ACCESS:          0 HIT:          0 MISS:          0
cpu0_L1I WRITE        ACCESS:          0 HIT:          0 MISS:          0
cpu0_L1I TRANSLATION  ACCESS:          0 HIT:          0 MISS:          0
cpu0_L1I PREFETCH REQUESTED:          0 ISSUED:          0 USEFUL:          0 USELESS:          0
cpu0_L1I AVERAGE MISS LATENCY: 17.59 cycles
cpu0_L2C TOTAL        ACCESS:    3232258 HIT:    2803976 MISS:     428282
cpu0_L2C LOAD         ACCESS:    2710120 HIT:    2333746 MISS:     376374
cpu0_L2C RFO          ACCESS:     133278 HIT:     100452 MISS:      32826
cpu0_L2C PREFETCH     ACCESS:          0 HIT:          0 MISS:          0
cpu0_L2C WRITE        ACCESS:     362413 HIT:     361501 MISS:        912
cpu0_L2C TRANSLATION  ACCESS:      26447 HIT:       8277 MISS:      18170
cpu0_L2C PREFETCH REQUESTED:          0 ISSUED:          0 USEFUL:          0 USELESS:          0
cpu0_L2C AVERAGE MISS LATENCY: 467.7 cycles
cpu0_STLB TOTAL        ACCESS:    1008458 HIT:     981764 MISS:      26694
cpu0_STLB LOAD         ACCESS:    1008458 HIT:     981764 MISS:      26694
cpu0_STLB RFO          ACCESS:          0 HIT:          0 MISS:          0
cpu0_STLB PREFETCH     ACCESS:          0 HIT:          0 MISS:          0
cpu0_STLB WRITE        ACCESS:          0 HIT:          0 MISS:          0
cpu0_STLB TRANSLATION  ACCESS:          0 HIT:          0 MISS:          0
cpu0_STLB PREFETCH REQUESTED:          0 ISSUED:          0 USEFUL:          0 USELESS:          0
cpu0_STLB AVERAGE MISS LATENCY: 585.2 cycles

DRAM Statistics

Channel 0 RQ ROW_BUFFER_HIT:     169913
  ROW_BUFFER_MISS:     376497
 AVG DBUS CONGESTED CYCLE: 3.911
WQ ROW_BUFFER_HIT: Channel 0 
  ROW_BUFFER_MISS:       8416
  FULL:      66090
