WARNING: physical memory size is smaller than virtual memory size.

*** ChampSim Multicore Out-of-Order Simulator ***
Warmup Instructions: 50000000
Simulation Instructions: 600000000
Number of CPUs: 1
Page size: 4096

Initialize SIGNATURE TABLE
ST_SET: 1
ST_WAY: 256
ST_TAG_BIT: 16
ST_TAG_MASK: ffff

Initialize PATTERN TABLE
PT_SET: 512
PT_WAY: 4
SIG_DELTA_BIT: 7
C_SIG_BIT: 4
C_DELTA_BIT: 4

Initialize PREFETCH FILTER
FILTER_SET: 1024
Off-chip DRAM Size: 4 GiB Channels: 1 Width: 64-bit Data Race: 3200 MT/s
Heartbeat CPU 0 instructions: 10000000 cycles: 2500061 heartbeat IPC: 4 cumulative IPC: 4 (Simulation time: 00 hr 03 min 15 sec)
Heartbeat CPU 0 instructions: 20000000 cycles: 5000061 heartbeat IPC: 4 cumulative IPC: 4 (Simulation time: 00 hr 06 min 53 sec)
Heartbeat CPU 0 instructions: 30000000 cycles: 7500061 heartbeat IPC: 4 cumulative IPC: 4 (Simulation time: 00 hr 10 min 26 sec)
Heartbeat CPU 0 instructions: 40000000 cycles: 10000061 heartbeat IPC: 4 cumulative IPC: 4 (Simulation time: 00 hr 13 min 59 sec)
Heartbeat CPU 0 instructions: 50000000 cycles: 12500061 heartbeat IPC: 4 cumulative IPC: 4 (Simulation time: 00 hr 17 min 35 sec)
Warmup finished CPU 0 instructions: 50000000 cycles: 12500062 cumulative IPC: 4 (Simulation time: 00 hr 17 min 35 sec)
Warmup complete CPU 0 instructions: 50000000 cycles: 12500062 cumulative IPC: 4 (Simulation time: 00 hr 17 min 35 sec)
Heartbeat CPU 0 instructions: 60000004 cycles: 15581194 heartbeat IPC: 3.246 cumulative IPC: 3.246 (Simulation time: 00 hr 22 min 01 sec)
Heartbeat CPU 0 instructions: 70000003 cycles: 18669214 heartbeat IPC: 3.238 cumulative IPC: 3.242 (Simulation time: 00 hr 26 min 22 sec)
Heartbeat CPU 0 instructions: 80000001 cycles: 21849654 heartbeat IPC: 3.144 cumulative IPC: 3.209 (Simulation time: 00 hr 30 min 45 sec)
Heartbeat CPU 0 instructions: 90000000 cycles: 24634404 heartbeat IPC: 3.591 cumulative IPC: 3.296 (Simulation time: 00 hr 34 min 57 sec)
Heartbeat CPU 0 instructions: 100000003 cycles: 27560415 heartbeat IPC: 3.418 cumulative IPC: 3.32 (Simulation time: 00 hr 39 min 14 sec)
Heartbeat CPU 0 instructions: 110000000 cycles: 30606632 heartbeat IPC: 3.283 cumulative IPC: 3.314 (Simulation time: 00 hr 43 min 33 sec)
Heartbeat CPU 0 instructions: 120000001 cycles: 33449504 heartbeat IPC: 3.518 cumulative IPC: 3.341 (Simulation time: 00 hr 47 min 48 sec)
Heartbeat CPU 0 instructions: 130000003 cycles: 36435136 heartbeat IPC: 3.349 cumulative IPC: 3.342 (Simulation time: 00 hr 52 min 18 sec)
Heartbeat CPU 0 instructions: 140000002 cycles: 39420846 heartbeat IPC: 3.349 cumulative IPC: 3.343 (Simulation time: 00 hr 56 min 38 sec)
Heartbeat CPU 0 instructions: 150000001 cycles: 42338684 heartbeat IPC: 3.427 cumulative IPC: 3.351 (Simulation time: 01 hr 00 min 53 sec)
Heartbeat CPU 0 instructions: 160000000 cycles: 45330006 heartbeat IPC: 3.343 cumulative IPC: 3.351 (Simulation time: 01 hr 05 min 11 sec)
Heartbeat CPU 0 instructions: 170000001 cycles: 48387826 heartbeat IPC: 3.27 cumulative IPC: 3.344 (Simulation time: 01 hr 09 min 34 sec)
Heartbeat CPU 0 instructions: 180000000 cycles: 51252733 heartbeat IPC: 3.491 cumulative IPC: 3.355 (Simulation time: 01 hr 13 min 56 sec)
Heartbeat CPU 0 instructions: 190000002 cycles: 54080618 heartbeat IPC: 3.536 cumulative IPC: 3.367 (Simulation time: 01 hr 18 min 11 sec)
Heartbeat CPU 0 instructions: 200000002 cycles: 57052007 heartbeat IPC: 3.365 cumulative IPC: 3.367 (Simulation time: 01 hr 22 min 32 sec)
Heartbeat CPU 0 instructions: 210000000 cycles: 60019944 heartbeat IPC: 3.369 cumulative IPC: 3.367 (Simulation time: 01 hr 26 min 49 sec)
Heartbeat CPU 0 instructions: 220000001 cycles: 62917734 heartbeat IPC: 3.451 cumulative IPC: 3.372 (Simulation time: 01 hr 31 min 07 sec)
Heartbeat CPU 0 instructions: 230000002 cycles: 65937243 heartbeat IPC: 3.312 cumulative IPC: 3.368 (Simulation time: 01 hr 35 min 27 sec)
Heartbeat CPU 0 instructions: 240000004 cycles: 69057395 heartbeat IPC: 3.205 cumulative IPC: 3.359 (Simulation time: 01 hr 39 min 49 sec)
Heartbeat CPU 0 instructions: 250000003 cycles: 72208882 heartbeat IPC: 3.173 cumulative IPC: 3.35 (Simulation time: 01 hr 44 min 11 sec)
Heartbeat CPU 0 instructions: 260000000 cycles: 75113328 heartbeat IPC: 3.443 cumulative IPC: 3.354 (Simulation time: 01 hr 48 min 25 sec)
Heartbeat CPU 0 instructions: 270000002 cycles: 81291894 heartbeat IPC: 1.618 cumulative IPC: 3.198 (Simulation time: 01 hr 54 min 55 sec)
Heartbeat CPU 0 instructions: 280000000 cycles: 91163006 heartbeat IPC: 1.013 cumulative IPC: 2.924 (Simulation time: 02 hr 04 min 04 sec)
Heartbeat CPU 0 instructions: 290000000 cycles: 99318590 heartbeat IPC: 1.226 cumulative IPC: 2.764 (Simulation time: 02 hr 12 min 07 sec)
Heartbeat CPU 0 instructions: 300000003 cycles: 104694460 heartbeat IPC: 1.86 cumulative IPC: 2.712 (Simulation time: 02 hr 18 min 35 sec)
Heartbeat CPU 0 instructions: 310000004 cycles: 113393589 heartbeat IPC: 1.15 cumulative IPC: 2.577 (Simulation time: 02 hr 27 min 16 sec)
Heartbeat CPU 0 instructions: 320000004 cycles: 117289613 heartbeat IPC: 2.567 cumulative IPC: 2.577 (Simulation time: 02 hr 32 min 28 sec)
Heartbeat CPU 0 instructions: 330000000 cycles: 120586025 heartbeat IPC: 3.034 cumulative IPC: 2.591 (Simulation time: 02 hr 37 min 07 sec)
Heartbeat CPU 0 instructions: 340000001 cycles: 123936998 heartbeat IPC: 2.984 cumulative IPC: 2.602 (Simulation time: 02 hr 41 min 48 sec)
Heartbeat CPU 0 instructions: 350000000 cycles: 127445130 heartbeat IPC: 2.851 cumulative IPC: 2.61 (Simulation time: 02 hr 46 min 37 sec)
Heartbeat CPU 0 instructions: 360000003 cycles: 130748029 heartbeat IPC: 3.028 cumulative IPC: 2.622 (Simulation time: 02 hr 51 min 15 sec)
Heartbeat CPU 0 instructions: 370000001 cycles: 133966380 heartbeat IPC: 3.107 cumulative IPC: 2.634 (Simulation time: 02 hr 55 min 51 sec)
Heartbeat CPU 0 instructions: 380000004 cycles: 137190454 heartbeat IPC: 3.102 cumulative IPC: 2.647 (Simulation time: 03 hr 00 min 30 sec)
Heartbeat CPU 0 instructions: 390000002 cycles: 140598881 heartbeat IPC: 2.934 cumulative IPC: 2.654 (Simulation time: 03 hr 05 min 14 sec)
Heartbeat CPU 0 instructions: 400000000 cycles: 144086796 heartbeat IPC: 2.867 cumulative IPC: 2.66 (Simulation time: 03 hr 10 min 01 sec)
Heartbeat CPU 0 instructions: 410000000 cycles: 150690495 heartbeat IPC: 1.514 cumulative IPC: 2.605 (Simulation time: 03 hr 16 min 58 sec)
Heartbeat CPU 0 instructions: 420000003 cycles: 160120257 heartbeat IPC: 1.06 cumulative IPC: 2.506 (Simulation time: 03 hr 25 min 56 sec)
Heartbeat CPU 0 instructions: 430000004 cycles: 166019731 heartbeat IPC: 1.695 cumulative IPC: 2.475 (Simulation time: 03 hr 32 min 39 sec)
Heartbeat CPU 0 instructions: 440000004 cycles: 171118160 heartbeat IPC: 1.961 cumulative IPC: 2.459 (Simulation time: 03 hr 38 min 48 sec)
Heartbeat CPU 0 instructions: 450000000 cycles: 176037862 heartbeat IPC: 2.033 cumulative IPC: 2.446 (Simulation time: 03 hr 44 min 59 sec)
Heartbeat CPU 0 instructions: 460000002 cycles: 184496524 heartbeat IPC: 1.182 cumulative IPC: 2.384 (Simulation time: 03 hr 53 min 21 sec)
Heartbeat CPU 0 instructions: 470000003 cycles: 192499726 heartbeat IPC: 1.25 cumulative IPC: 2.333 (Simulation time: 04 hr 01 min 24 sec)
Heartbeat CPU 0 instructions: 480000000 cycles: 196055075 heartbeat IPC: 2.813 cumulative IPC: 2.343 (Simulation time: 04 hr 06 min 13 sec)
Heartbeat CPU 0 instructions: 490000001 cycles: 199863902 heartbeat IPC: 2.625 cumulative IPC: 2.348 (Simulation time: 04 hr 11 min 15 sec)
Heartbeat CPU 0 instructions: 500000002 cycles: 203563585 heartbeat IPC: 2.703 cumulative IPC: 2.355 (Simulation time: 04 hr 16 min 10 sec)
Heartbeat CPU 0 instructions: 510000000 cycles: 207188926 heartbeat IPC: 2.758 cumulative IPC: 2.363 (Simulation time: 04 hr 21 min 07 sec)
Heartbeat CPU 0 instructions: 520000000 cycles: 210873208 heartbeat IPC: 2.714 cumulative IPC: 2.369 (Simulation time: 04 hr 26 min 03 sec)
Heartbeat CPU 0 instructions: 530000001 cycles: 220613699 heartbeat IPC: 1.027 cumulative IPC: 2.306 (Simulation time: 04 hr 35 min 06 sec)
Heartbeat CPU 0 instructions: 540000000 cycles: 229942366 heartbeat IPC: 1.072 cumulative IPC: 2.253 (Simulation time: 04 hr 44 min 07 sec)
Heartbeat CPU 0 instructions: 550000004 cycles: 240704012 heartbeat IPC: 0.9292 cumulative IPC: 2.191 (Simulation time: 04 hr 54 min 00 sec)
Heartbeat CPU 0 instructions: 560000004 cycles: 244423084 heartbeat IPC: 2.689 cumulative IPC: 2.199 (Simulation time: 04 hr 58 min 51 sec)
Heartbeat CPU 0 instructions: 570000002 cycles: 247270115 heartbeat IPC: 3.512 cumulative IPC: 2.215 (Simulation time: 05 hr 03 min 11 sec)
Heartbeat CPU 0 instructions: 580000000 cycles: 250273301 heartbeat IPC: 3.33 cumulative IPC: 2.229 (Simulation time: 05 hr 07 min 30 sec)
Heartbeat CPU 0 instructions: 590000001 cycles: 253270447 heartbeat IPC: 3.337 cumulative IPC: 2.243 (Simulation time: 05 hr 11 min 51 sec)
Heartbeat CPU 0 instructions: 600000003 cycles: 256020580 heartbeat IPC: 3.636 cumulative IPC: 2.259 (Simulation time: 05 hr 16 min 10 sec)
Heartbeat CPU 0 instructions: 610000001 cycles: 258966135 heartbeat IPC: 3.395 cumulative IPC: 2.272 (Simulation time: 05 hr 20 min 40 sec)
Heartbeat CPU 0 instructions: 620000002 cycles: 261996509 heartbeat IPC: 3.3 cumulative IPC: 2.285 (Simulation time: 05 hr 25 min 03 sec)
Heartbeat CPU 0 instructions: 630000002 cycles: 264881983 heartbeat IPC: 3.466 cumulative IPC: 2.298 (Simulation time: 05 hr 29 min 24 sec)
Heartbeat CPU 0 instructions: 640000004 cycles: 267975474 heartbeat IPC: 3.233 cumulative IPC: 2.309 (Simulation time: 05 hr 33 min 56 sec)
Heartbeat CPU 0 instructions: 650000001 cycles: 270735530 heartbeat IPC: 3.623 cumulative IPC: 2.323 (Simulation time: 05 hr 38 min 14 sec)
Simulation finished CPU 0 instructions: 600000001 cycles: 258235469 cumulative IPC: 2.323 (Simulation time: 05 hr 38 min 14 sec)
Simulation complete CPU 0 instructions: 600000001 cycles: 258235469 cumulative IPC: 2.323 (Simulation time: 05 hr 38 min 14 sec)

ChampSim completed all CPUs

=== Simulation ===
CPU 0 runs traces/400.perlbench-50B.champsimtrace.xz
Region of Interest Statistics

CPU 0 cumulative IPC: 2.323 instructions: 600000001 cycles: 258235469
CPU 0 Branch Prediction Accuracy: 98.73% MPKI: 2.62 Average ROB Occupancy at Mispredict: 85.96
Branch type MPKI
BRANCH_DIRECT_JUMP: 0.0176
BRANCH_INDIRECT: 0.38
BRANCH_CONDITIONAL: 1.77
BRANCH_DIRECT_CALL: 0.0067
BRANCH_INDIRECT_CALL: 0.431
BRANCH_RETURN: 0.0161

LLC TOTAL        ACCESS:     882246 HIT:     292422 MISS:     589824
LLC LOAD         ACCESS:     376728 HIT:     100811 MISS:     275917
LLC RFO          ACCESS:      32661 HIT:      12085 MISS:      20576
LLC PREFETCH     ACCESS:     370709 HIT:      90676 MISS:     280033
LLC WRITE        ACCESS:      83902 HIT:      82598 MISS:       1304
LLC TRANSLATION  ACCESS:      18246 HIT:       6252 MISS:      11994
LLC PREFETCH REQUESTED:     370709 ISSUED:     370709 USEFUL:       3286 USELESS:        207
LLC AVERAGE MISS LATENCY: 353.7 cycles
cpu0_DTLB TOTAL        ACCESS:  134600958 HIT:  133253268 MISS:    1347690
cpu0_DTLB LOAD         ACCESS:  134600958 HIT:  133253268 MISS:    1347690
cpu0_DTLB RFO          ACCESS:          0 HIT:          0 MISS:          0
cpu0_DTLB PREFETCH     ACCESS:          0 HIT:          0 MISS:          0
cpu0_DTLB WRITE        ACCESS:          0 HIT:          0 MISS:          0
cpu0_DTLB TRANSLATION  ACCESS:          0 HIT:          0 MISS:          0
cpu0_DTLB PREFETCH REQUESTED:          0 ISSUED:          0 USEFUL:          0 USELESS:          0
cpu0_DTLB AVERAGE MISS LATENCY: 12.55 cycles
cpu0_ITLB TOTAL        ACCESS:    8982777 HIT:    8774672 MISS:     208105
cpu0_ITLB LOAD         ACCESS:    8982777 HIT:    8774672 MISS:     208105
cpu0_ITLB RFO          ACCESS:          0 HIT:          0 MISS:          0
cpu0_ITLB PREFETCH     ACCESS:          0 HIT:          0 MISS:          0
cpu0_ITLB WRITE        ACCESS:          0 HIT:          0 MISS:          0
cpu0_ITLB TRANSLATION  ACCESS:          0 HIT:          0 MISS:          0
cpu0_ITLB PREFETCH REQUESTED:          0 ISSUED:          0 USEFUL:          0 USELESS:          0
cpu0_ITLB AVERAGE MISS LATENCY: 3.171 cycles
cpu0_L1D TOTAL        ACCESS:  180677953 HIT:  177735960 MISS:    2941993
cpu0_L1D LOAD         ACCESS:   95122995 HIT:   92706009 MISS:    2416986
cpu0_L1D RFO          ACCESS:          0 HIT:          0 MISS:          0
cpu0_L1D PREFETCH     ACCESS:          0 HIT:          0 MISS:          0
cpu0_L1D WRITE        ACCESS:   85526433 HIT:   85027947 MISS:     498486
cpu0_L1D TRANSLATION  ACCESS:      28525 HIT:       2004 MISS:      26521
cpu0_L1D PREFETCH REQUESTED:          0 ISSUED:          0 USEFUL:          0 USELESS:          0
cpu0_L1D AVERAGE MISS LATENCY: 70.65 cycles
cpu0_L1I TOTAL        ACCESS:   10497048 HIT:    8605995 MISS:    1891053
cpu0_L1I LOAD         ACCESS:   10497048 HIT:    8605995 MISS:    1891053
cpu0_L1I RFO          ACCESS:          0 HIT:          0 MISS:          0
cpu0_L1I PREFETCH     ACCESS:          0 HIT:          0 MISS:          0
cpu0_L1I WRITE        ACCESS:          0 HIT:          0 MISS:          0
cpu0_L1I TRANSLATION  ACCESS:          0 HIT:          0 MISS:          0
cpu0_L1I PREFETCH REQUESTED:          0 ISSUED:          0 USEFUL:          0 USELESS:          0
cpu0_L1I AVERAGE MISS LATENCY: 10.46 cycles
cpu0_L2C TOTAL        ACCESS:    3236190 HIT:    2807610 MISS:     428580
cpu0_L2C LOAD         ACCESS:    2709749 HIT:    2333021 MISS:     376728
cpu0_L2C RFO          ACCESS:     135281 HIT:     102620 MISS:      32661
cpu0_L2C PREFETCH     ACCESS:          0 HIT:          0 MISS:          0
cpu0_L2C WRITE        ACCESS:     364724 HIT:     363779 MISS:        945
cpu0_L2C TRANSLATION  ACCESS:      26436 HIT:       8190 MISS:      18246
cpu0_L2C PREFETCH REQUESTED:          0 ISSUED:          0 USEFUL:          0 USELESS:          0
cpu0_L2C AVERAGE MISS LATENCY: 502 cycles
cpu0_STLB TOTAL        ACCESS:    1009546 HIT:     982856 MISS:      26690
cpu0_STLB LOAD         ACCESS:    1009546 HIT:     982856 MISS:      26690
cpu0_STLB RFO          ACCESS:          0 HIT:          0 MISS:          0
cpu0_STLB PREFETCH     ACCESS:          0 HIT:          0 MISS:          0
cpu0_STLB WRITE        ACCESS:          0 HIT:          0 MISS:          0
cpu0_STLB TRANSLATION  ACCESS:          0 HIT:          0 MISS:          0
cpu0_STLB PREFETCH REQUESTED:          0 ISSUED:          0 USEFUL:          0 USELESS:          0
cpu0_STLB AVERAGE MISS LATENCY: 435.5 cycles

DRAM Statistics

Channel 0 RQ ROW_BUFFER_HIT:      90935
  ROW_BUFFER_MISS:     337820
 AVG DBUS CONGESTED CYCLE: 3.883
WQ ROW_BUFFER_HIT: Channel 0 
  ROW_BUFFER_MISS:       5036
  FULL:      43645
