WARNING: physical memory size is smaller than virtual memory size.

*** ChampSim Multicore Out-of-Order Simulator ***
Warmup Instructions: 50000000
Simulation Instructions: 600000000
Number of CPUs: 1
Page size: 4096

Off-chip DRAM Size: 4 GiB Channels: 1 Width: 64-bit Data Race: 3200 MT/s
Heartbeat CPU 0 instructions: 10000001 cycles: 2500318 heartbeat IPC: 3.999 cumulative IPC: 3.999 (Simulation time: 00 hr 03 min 56 sec)
Heartbeat CPU 0 instructions: 20000002 cycles: 5037108 heartbeat IPC: 3.942 cumulative IPC: 3.971 (Simulation time: 00 hr 08 min 10 sec)
Heartbeat CPU 0 instructions: 30000002 cycles: 7537108 heartbeat IPC: 4 cumulative IPC: 3.98 (Simulation time: 00 hr 11 min 46 sec)
Heartbeat CPU 0 instructions: 40000002 cycles: 10037108 heartbeat IPC: 4 cumulative IPC: 3.985 (Simulation time: 00 hr 15 min 15 sec)
Heartbeat CPU 0 instructions: 50000002 cycles: 12537108 heartbeat IPC: 4 cumulative IPC: 3.988 (Simulation time: 00 hr 18 min 53 sec)
Warmup finished CPU 0 instructions: 50000002 cycles: 12537109 cumulative IPC: 3.988 (Simulation time: 00 hr 18 min 53 sec)
Warmup complete CPU 0 instructions: 50000002 cycles: 12537109 cumulative IPC: 3.988 (Simulation time: 00 hr 18 min 53 sec)
Heartbeat CPU 0 instructions: 60000000 cycles: 17158832 heartbeat IPC: 2.164 cumulative IPC: 2.164 (Simulation time: 00 hr 24 min 13 sec)
Heartbeat CPU 0 instructions: 70000004 cycles: 21437136 heartbeat IPC: 2.337 cumulative IPC: 2.247 (Simulation time: 00 hr 29 min 23 sec)
Heartbeat CPU 0 instructions: 80000001 cycles: 26050935 heartbeat IPC: 2.167 cumulative IPC: 2.22 (Simulation time: 00 hr 34 min 47 sec)
Heartbeat CPU 0 instructions: 90000001 cycles: 30185830 heartbeat IPC: 2.418 cumulative IPC: 2.266 (Simulation time: 00 hr 40 min 08 sec)
Heartbeat CPU 0 instructions: 100000000 cycles: 34250202 heartbeat IPC: 2.46 cumulative IPC: 2.303 (Simulation time: 00 hr 45 min 22 sec)
Heartbeat CPU 0 instructions: 110000000 cycles: 38486175 heartbeat IPC: 2.361 cumulative IPC: 2.312 (Simulation time: 00 hr 50 min 10 sec)
Heartbeat CPU 0 instructions: 120000001 cycles: 42503630 heartbeat IPC: 2.489 cumulative IPC: 2.336 (Simulation time: 00 hr 55 min 07 sec)
Heartbeat CPU 0 instructions: 130000001 cycles: 46253146 heartbeat IPC: 2.667 cumulative IPC: 2.373 (Simulation time: 00 hr 59 min 59 sec)
Heartbeat CPU 0 instructions: 140000001 cycles: 50428668 heartbeat IPC: 2.395 cumulative IPC: 2.375 (Simulation time: 01 hr 04 min 52 sec)
Heartbeat CPU 0 instructions: 150000001 cycles: 54640687 heartbeat IPC: 2.374 cumulative IPC: 2.375 (Simulation time: 01 hr 09 min 43 sec)
Heartbeat CPU 0 instructions: 160000004 cycles: 59076689 heartbeat IPC: 2.254 cumulative IPC: 2.364 (Simulation time: 01 hr 14 min 56 sec)
Heartbeat CPU 0 instructions: 170000004 cycles: 67271350 heartbeat IPC: 1.22 cumulative IPC: 2.192 (Simulation time: 01 hr 22 min 24 sec)
Heartbeat CPU 0 instructions: 180000004 cycles: 75720385 heartbeat IPC: 1.184 cumulative IPC: 2.058 (Simulation time: 01 hr 30 min 12 sec)
Heartbeat CPU 0 instructions: 190000001 cycles: 86344128 heartbeat IPC: 0.9413 cumulative IPC: 1.897 (Simulation time: 01 hr 39 min 17 sec)
Heartbeat CPU 0 instructions: 200000004 cycles: 90137395 heartbeat IPC: 2.636 cumulative IPC: 1.933 (Simulation time: 01 hr 43 min 59 sec)
Heartbeat CPU 0 instructions: 210000001 cycles: 94065027 heartbeat IPC: 2.546 cumulative IPC: 1.963 (Simulation time: 01 hr 48 min 43 sec)
Heartbeat CPU 0 instructions: 220000000 cycles: 98032813 heartbeat IPC: 2.52 cumulative IPC: 1.988 (Simulation time: 01 hr 53 min 24 sec)
Heartbeat CPU 0 instructions: 230000002 cycles: 102721302 heartbeat IPC: 2.133 cumulative IPC: 1.996 (Simulation time: 01 hr 58 min 32 sec)
Heartbeat CPU 0 instructions: 240000000 cycles: 106929161 heartbeat IPC: 2.377 cumulative IPC: 2.013 (Simulation time: 02 hr 03 min 25 sec)
Heartbeat CPU 0 instructions: 250000000 cycles: 111269020 heartbeat IPC: 2.304 cumulative IPC: 2.026 (Simulation time: 02 hr 08 min 21 sec)
Heartbeat CPU 0 instructions: 260000000 cycles: 115464385 heartbeat IPC: 2.384 cumulative IPC: 2.04 (Simulation time: 02 hr 13 min 12 sec)
Heartbeat CPU 0 instructions: 270000002 cycles: 119325246 heartbeat IPC: 2.59 cumulative IPC: 2.06 (Simulation time: 02 hr 18 min 00 sec)
Heartbeat CPU 0 instructions: 280000002 cycles: 123501475 heartbeat IPC: 2.395 cumulative IPC: 2.073 (Simulation time: 02 hr 22 min 49 sec)
Heartbeat CPU 0 instructions: 290000001 cycles: 127413563 heartbeat IPC: 2.556 cumulative IPC: 2.089 (Simulation time: 02 hr 27 min 29 sec)
Heartbeat CPU 0 instructions: 300000003 cycles: 131266156 heartbeat IPC: 2.596 cumulative IPC: 2.106 (Simulation time: 02 hr 32 min 14 sec)
Heartbeat CPU 0 instructions: 310000001 cycles: 135415332 heartbeat IPC: 2.41 cumulative IPC: 2.116 (Simulation time: 02 hr 37 min 06 sec)
Heartbeat CPU 0 instructions: 320000003 cycles: 139513432 heartbeat IPC: 2.44 cumulative IPC: 2.126 (Simulation time: 02 hr 41 min 55 sec)
Heartbeat CPU 0 instructions: 330000003 cycles: 143951840 heartbeat IPC: 2.253 cumulative IPC: 2.131 (Simulation time: 02 hr 46 min 55 sec)
Heartbeat CPU 0 instructions: 340000000 cycles: 152354745 heartbeat IPC: 1.19 cumulative IPC: 2.074 (Simulation time: 02 hr 54 min 38 sec)
Heartbeat CPU 0 instructions: 350000000 cycles: 161417136 heartbeat IPC: 1.103 cumulative IPC: 2.015 (Simulation time: 03 hr 02 min 46 sec)
Heartbeat CPU 0 instructions: 360000004 cycles: 172059500 heartbeat IPC: 0.9396 cumulative IPC: 1.943 (Simulation time: 03 hr 11 min 58 sec)
Heartbeat CPU 0 instructions: 370000000 cycles: 175516396 heartbeat IPC: 2.893 cumulative IPC: 1.963 (Simulation time: 03 hr 16 min 25 sec)
Heartbeat CPU 0 instructions: 380000001 cycles: 178941409 heartbeat IPC: 2.92 cumulative IPC: 1.983 (Simulation time: 03 hr 20 min 54 sec)
Heartbeat CPU 0 instructions: 390000004 cycles: 182695571 heartbeat IPC: 2.664 cumulative IPC: 1.998 (Simulation time: 03 hr 25 min 32 sec)
Heartbeat CPU 0 instructions: 400000004 cycles: 186511227 heartbeat IPC: 2.621 cumulative IPC: 2.012 (Simulation time: 03 hr 30 min 09 sec)
Heartbeat CPU 0 instructions: 410000001 cycles: 190176761 heartbeat IPC: 2.728 cumulative IPC: 2.027 (Simulation time: 03 hr 34 min 42 sec)
Heartbeat CPU 0 instructions: 420000003 cycles: 194247413 heartbeat IPC: 2.457 cumulative IPC: 2.036 (Simulation time: 03 hr 39 min 30 sec)
Heartbeat CPU 0 instructions: 430000001 cycles: 197930335 heartbeat IPC: 2.715 cumulative IPC: 2.05 (Simulation time: 03 hr 44 min 08 sec)
Heartbeat CPU 0 instructions: 440000004 cycles: 202033531 heartbeat IPC: 2.437 cumulative IPC: 2.058 (Simulation time: 03 hr 48 min 53 sec)
Heartbeat CPU 0 instructions: 450000002 cycles: 205785584 heartbeat IPC: 2.665 cumulative IPC: 2.07 (Simulation time: 03 hr 53 min 31 sec)
Heartbeat CPU 0 instructions: 460000000 cycles: 209468671 heartbeat IPC: 2.715 cumulative IPC: 2.082 (Simulation time: 03 hr 58 min 03 sec)
Heartbeat CPU 0 instructions: 470000000 cycles: 212945250 heartbeat IPC: 2.876 cumulative IPC: 2.096 (Simulation time: 04 hr 02 min 29 sec)
Heartbeat CPU 0 instructions: 480000003 cycles: 216811285 heartbeat IPC: 2.587 cumulative IPC: 2.105 (Simulation time: 04 hr 07 min 09 sec)
Heartbeat CPU 0 instructions: 490000000 cycles: 220449425 heartbeat IPC: 2.749 cumulative IPC: 2.116 (Simulation time: 04 hr 11 min 40 sec)
Heartbeat CPU 0 instructions: 500000000 cycles: 224158634 heartbeat IPC: 2.696 cumulative IPC: 2.126 (Simulation time: 04 hr 16 min 15 sec)
Heartbeat CPU 0 instructions: 510000003 cycles: 227881222 heartbeat IPC: 2.686 cumulative IPC: 2.136 (Simulation time: 04 hr 20 min 54 sec)
Heartbeat CPU 0 instructions: 520000001 cycles: 231312370 heartbeat IPC: 2.914 cumulative IPC: 2.148 (Simulation time: 04 hr 25 min 22 sec)
Heartbeat CPU 0 instructions: 530000002 cycles: 235009930 heartbeat IPC: 2.704 cumulative IPC: 2.158 (Simulation time: 04 hr 29 min 57 sec)
Heartbeat CPU 0 instructions: 540000000 cycles: 238549524 heartbeat IPC: 2.825 cumulative IPC: 2.168 (Simulation time: 04 hr 34 min 30 sec)
Heartbeat CPU 0 instructions: 550000001 cycles: 242261657 heartbeat IPC: 2.694 cumulative IPC: 2.177 (Simulation time: 04 hr 39 min 06 sec)
Heartbeat CPU 0 instructions: 560000000 cycles: 246304541 heartbeat IPC: 2.473 cumulative IPC: 2.182 (Simulation time: 04 hr 43 min 55 sec)
Heartbeat CPU 0 instructions: 570000004 cycles: 252760777 heartbeat IPC: 1.549 cumulative IPC: 2.165 (Simulation time: 04 hr 50 min 19 sec)
Heartbeat CPU 0 instructions: 580000003 cycles: 260598877 heartbeat IPC: 1.276 cumulative IPC: 2.137 (Simulation time: 04 hr 57 min 44 sec)
Heartbeat CPU 0 instructions: 590000002 cycles: 273776994 heartbeat IPC: 0.7588 cumulative IPC: 2.067 (Simulation time: 05 hr 08 min 31 sec)
Heartbeat CPU 0 instructions: 600000000 cycles: 277595306 heartbeat IPC: 2.619 cumulative IPC: 2.075 (Simulation time: 05 hr 13 min 10 sec)
Heartbeat CPU 0 instructions: 610000000 cycles: 281465922 heartbeat IPC: 2.584 cumulative IPC: 2.082 (Simulation time: 05 hr 17 min 50 sec)
Heartbeat CPU 0 instructions: 620000001 cycles: 284901530 heartbeat IPC: 2.911 cumulative IPC: 2.093 (Simulation time: 05 hr 22 min 19 sec)
Heartbeat CPU 0 instructions: 630000002 cycles: 289188100 heartbeat IPC: 2.333 cumulative IPC: 2.097 (Simulation time: 05 hr 27 min 12 sec)
Heartbeat CPU 0 instructions: 640000001 cycles: 293089026 heartbeat IPC: 2.563 cumulative IPC: 2.103 (Simulation time: 05 hr 31 min 53 sec)
Heartbeat CPU 0 instructions: 650000000 cycles: 296847277 heartbeat IPC: 2.661 cumulative IPC: 2.11 (Simulation time: 05 hr 36 min 30 sec)
Simulation finished CPU 0 instructions: 600000001 cycles: 284310170 cumulative IPC: 2.11 (Simulation time: 05 hr 36 min 30 sec)
Simulation complete CPU 0 instructions: 600000001 cycles: 284310170 cumulative IPC: 2.11 (Simulation time: 05 hr 36 min 30 sec)

ChampSim completed all CPUs

=== Simulation ===
CPU 0 runs traces/400.perlbench-41B.champsimtrace.xz
Region of Interest Statistics

CPU 0 cumulative IPC: 2.11 instructions: 600000001 cycles: 284310170
CPU 0 Branch Prediction Accuracy: 96.56% MPKI: 7.112 Average ROB Occupancy at Mispredict: 47.2
Branch type MPKI
BRANCH_DIRECT_JUMP: 0.0123
BRANCH_INDIRECT: 0.323
BRANCH_CONDITIONAL: 6.56
BRANCH_DIRECT_CALL: 0.0043
BRANCH_INDIRECT_CALL: 0.2
BRANCH_RETURN: 0.00828

LLC TOTAL        ACCESS:     414538 HIT:     170580 MISS:     243958
LLC LOAD         ACCESS:     309521 HIT:     124840 MISS:     184681
LLC RFO          ACCESS:      25155 HIT:       9912 MISS:      15243
LLC PREFETCH     ACCESS:          0 HIT:          0 MISS:          0
LLC WRITE        ACCESS:      64132 HIT:      32946 MISS:      31186
LLC TRANSLATION  ACCESS:      15730 HIT:       2882 MISS:      12848
LLC PREFETCH REQUESTED:          0 ISSUED:          0 USEFUL:          0 USELESS:          0
LLC AVERAGE MISS LATENCY: 496.7 cycles
cpu0_DTLB TOTAL        ACCESS:  141880998 HIT:  141195399 MISS:     685599
cpu0_DTLB LOAD         ACCESS:  141880998 HIT:  141195399 MISS:     685599
cpu0_DTLB RFO          ACCESS:          0 HIT:          0 MISS:          0
cpu0_DTLB PREFETCH     ACCESS:          0 HIT:          0 MISS:          0
cpu0_DTLB WRITE        ACCESS:          0 HIT:          0 MISS:          0
cpu0_DTLB TRANSLATION  ACCESS:          0 HIT:          0 MISS:          0
cpu0_DTLB PREFETCH REQUESTED:          0 ISSUED:          0 USEFUL:          0 USELESS:          0
cpu0_DTLB AVERAGE MISS LATENCY: 16.91 cycles
cpu0_ITLB TOTAL        ACCESS:    4858265 HIT:    4804964 MISS:      53301
cpu0_ITLB LOAD         ACCESS:    4858265 HIT:    4804964 MISS:      53301
cpu0_ITLB RFO          ACCESS:          0 HIT:          0 MISS:          0
cpu0_ITLB PREFETCH     ACCESS:          0 HIT:          0 MISS:          0
cpu0_ITLB WRITE        ACCESS:          0 HIT:          0 MISS:          0
cpu0_ITLB TRANSLATION  ACCESS:          0 HIT:          0 MISS:          0
cpu0_ITLB PREFETCH REQUESTED:          0 ISSUED:          0 USEFUL:          0 USELESS:          0
cpu0_ITLB AVERAGE MISS LATENCY: 7.207 cycles
cpu0_L1D TOTAL        ACCESS:  188558438 HIT:  187226969 MISS:    1331469
cpu0_L1D LOAD         ACCESS:  105190540 HIT:  104162033 MISS:    1028507
cpu0_L1D RFO          ACCESS:          0 HIT:          0 MISS:          0
cpu0_L1D PREFETCH     ACCESS:          0 HIT:          0 MISS:          0
cpu0_L1D WRITE        ACCESS:   83343431 HIT:   83063329 MISS:     280102
cpu0_L1D TRANSLATION  ACCESS:      24467 HIT:       1607 MISS:      22860
cpu0_L1D PREFETCH REQUESTED:          0 ISSUED:          0 USEFUL:          0 USELESS:          0
cpu0_L1D AVERAGE MISS LATENCY: 95.08 cycles
cpu0_L1I TOTAL        ACCESS:    5595921 HIT:    4851779 MISS:     744142
cpu0_L1I LOAD         ACCESS:    5595921 HIT:    4851779 MISS:     744142
cpu0_L1I RFO          ACCESS:          0 HIT:          0 MISS:          0
cpu0_L1I PREFETCH     ACCESS:          0 HIT:          0 MISS:          0
cpu0_L1I WRITE        ACCESS:          0 HIT:          0 MISS:          0
cpu0_L1I TRANSLATION  ACCESS:          0 HIT:          0 MISS:          0
cpu0_L1I PREFETCH REQUESTED:          0 ISSUED:          0 USEFUL:          0 USELESS:          0
cpu0_L1I AVERAGE MISS LATENCY: 12.27 cycles
cpu0_L2C TOTAL        ACCESS:    1380804 HIT:    1029523 MISS:     351281
cpu0_L2C LOAD         ACCESS:    1124785 HIT:     815264 MISS:     309521
cpu0_L2C RFO          ACCESS:      63775 HIT:      38620 MISS:      25155
cpu0_L2C PREFETCH     ACCESS:          0 HIT:          0 MISS:          0
cpu0_L2C WRITE        ACCESS:     169456 HIT:     168581 MISS:        875
cpu0_L2C TRANSLATION  ACCESS:      22788 HIT:       7058 MISS:      15730
cpu0_L2C PREFETCH REQUESTED:          0 ISSUED:          0 USEFUL:          0 USELESS:          0
cpu0_L2C AVERAGE MISS LATENCY: 365.5 cycles
cpu0_STLB TOTAL        ACCESS:     507250 HIT:     484454 MISS:      22796
cpu0_STLB LOAD         ACCESS:     507250 HIT:     484454 MISS:      22796
cpu0_STLB RFO          ACCESS:          0 HIT:          0 MISS:          0
cpu0_STLB PREFETCH     ACCESS:          0 HIT:          0 MISS:          0
cpu0_STLB WRITE        ACCESS:          0 HIT:          0 MISS:          0
cpu0_STLB TRANSLATION  ACCESS:          0 HIT:          0 MISS:          0
cpu0_STLB PREFETCH REQUESTED:          0 ISSUED:          0 USEFUL:          0 USELESS:          0
cpu0_STLB AVERAGE MISS LATENCY: 392.6 cycles

DRAM Statistics

Channel 0 RQ ROW_BUFFER_HIT:      29987
  ROW_BUFFER_MISS:     182742
 AVG DBUS CONGESTED CYCLE: 3.807
WQ ROW_BUFFER_HIT: Channel 0 
  ROW_BUFFER_MISS:       7927
  FULL:      27088
