WARNING: physical memory size is smaller than virtual memory size.

*** ChampSim Multicore Out-of-Order Simulator ***
Warmup Instructions: 50000000
Simulation Instructions: 600000000
Number of CPUs: 1
Page size: 4096

Off-chip DRAM Size: 4 GiB Channels: 1 Width: 64-bit Data Race: 3200 MT/s
Heartbeat CPU 0 instructions: 10000001 cycles: 2500319 heartbeat IPC: 3.999 cumulative IPC: 3.999 (Simulation time: 00 hr 03 min 56 sec)
Heartbeat CPU 0 instructions: 20000002 cycles: 5037084 heartbeat IPC: 3.942 cumulative IPC: 3.971 (Simulation time: 00 hr 07 min 59 sec)
Heartbeat CPU 0 instructions: 30000002 cycles: 7537084 heartbeat IPC: 4 cumulative IPC: 3.98 (Simulation time: 00 hr 11 min 37 sec)
Heartbeat CPU 0 instructions: 40000002 cycles: 10037084 heartbeat IPC: 4 cumulative IPC: 3.985 (Simulation time: 00 hr 15 min 13 sec)
Heartbeat CPU 0 instructions: 50000002 cycles: 12537084 heartbeat IPC: 4 cumulative IPC: 3.988 (Simulation time: 00 hr 18 min 50 sec)
Warmup finished CPU 0 instructions: 50000002 cycles: 12537085 cumulative IPC: 3.988 (Simulation time: 00 hr 18 min 50 sec)
Warmup complete CPU 0 instructions: 50000002 cycles: 12537085 cumulative IPC: 3.988 (Simulation time: 00 hr 18 min 50 sec)
Heartbeat CPU 0 instructions: 60000001 cycles: 15845914 heartbeat IPC: 3.022 cumulative IPC: 3.022 (Simulation time: 00 hr 23 min 27 sec)
Heartbeat CPU 0 instructions: 70000004 cycles: 19128393 heartbeat IPC: 3.046 cumulative IPC: 3.034 (Simulation time: 00 hr 28 min 01 sec)
Heartbeat CPU 0 instructions: 80000001 cycles: 22430708 heartbeat IPC: 3.028 cumulative IPC: 3.032 (Simulation time: 00 hr 32 min 34 sec)
Heartbeat CPU 0 instructions: 90000001 cycles: 25562038 heartbeat IPC: 3.194 cumulative IPC: 3.071 (Simulation time: 00 hr 37 min 00 sec)
Heartbeat CPU 0 instructions: 100000000 cycles: 28694355 heartbeat IPC: 3.193 cumulative IPC: 3.095 (Simulation time: 00 hr 41 min 29 sec)
Heartbeat CPU 0 instructions: 110000000 cycles: 31814686 heartbeat IPC: 3.205 cumulative IPC: 3.112 (Simulation time: 00 hr 46 min 07 sec)
Heartbeat CPU 0 instructions: 120000001 cycles: 34970332 heartbeat IPC: 3.169 cumulative IPC: 3.12 (Simulation time: 00 hr 50 min 37 sec)
Heartbeat CPU 0 instructions: 130000001 cycles: 37996299 heartbeat IPC: 3.305 cumulative IPC: 3.142 (Simulation time: 00 hr 55 min 09 sec)
Heartbeat CPU 0 instructions: 140000001 cycles: 41259859 heartbeat IPC: 3.064 cumulative IPC: 3.133 (Simulation time: 00 hr 59 min 44 sec)
Heartbeat CPU 0 instructions: 150000001 cycles: 44496959 heartbeat IPC: 3.089 cumulative IPC: 3.129 (Simulation time: 01 hr 04 min 17 sec)
Heartbeat CPU 0 instructions: 160000004 cycles: 47766066 heartbeat IPC: 3.059 cumulative IPC: 3.122 (Simulation time: 01 hr 08 min 56 sec)
Heartbeat CPU 0 instructions: 170000000 cycles: 54338973 heartbeat IPC: 1.521 cumulative IPC: 2.871 (Simulation time: 01 hr 15 min 53 sec)
Heartbeat CPU 0 instructions: 180000004 cycles: 62801855 heartbeat IPC: 1.182 cumulative IPC: 2.586 (Simulation time: 01 hr 24 min 12 sec)
Heartbeat CPU 0 instructions: 190000001 cycles: 72009492 heartbeat IPC: 1.086 cumulative IPC: 2.354 (Simulation time: 01 hr 33 min 00 sec)
Heartbeat CPU 0 instructions: 200000004 cycles: 75168436 heartbeat IPC: 3.166 cumulative IPC: 2.395 (Simulation time: 01 hr 37 min 33 sec)
Heartbeat CPU 0 instructions: 210000001 cycles: 78285692 heartbeat IPC: 3.208 cumulative IPC: 2.434 (Simulation time: 01 hr 42 min 02 sec)
Heartbeat CPU 0 instructions: 220000000 cycles: 81316125 heartbeat IPC: 3.3 cumulative IPC: 2.472 (Simulation time: 01 hr 46 min 30 sec)
Heartbeat CPU 0 instructions: 230000004 cycles: 84708931 heartbeat IPC: 2.947 cumulative IPC: 2.494 (Simulation time: 01 hr 51 min 11 sec)
Heartbeat CPU 0 instructions: 240000002 cycles: 87942269 heartbeat IPC: 3.093 cumulative IPC: 2.52 (Simulation time: 01 hr 55 min 48 sec)
Heartbeat CPU 0 instructions: 250000000 cycles: 91189205 heartbeat IPC: 3.08 cumulative IPC: 2.543 (Simulation time: 02 hr 00 min 25 sec)
Heartbeat CPU 0 instructions: 260000002 cycles: 94389892 heartbeat IPC: 3.124 cumulative IPC: 2.566 (Simulation time: 02 hr 04 min 53 sec)
Heartbeat CPU 0 instructions: 270000002 cycles: 97485266 heartbeat IPC: 3.231 cumulative IPC: 2.59 (Simulation time: 02 hr 09 min 23 sec)
Heartbeat CPU 0 instructions: 280000002 cycles: 100564859 heartbeat IPC: 3.247 cumulative IPC: 2.613 (Simulation time: 02 hr 13 min 49 sec)
Heartbeat CPU 0 instructions: 290000002 cycles: 103695393 heartbeat IPC: 3.194 cumulative IPC: 2.633 (Simulation time: 02 hr 18 min 17 sec)
Heartbeat CPU 0 instructions: 300000003 cycles: 106813893 heartbeat IPC: 3.207 cumulative IPC: 2.652 (Simulation time: 02 hr 22 min 52 sec)
Heartbeat CPU 0 instructions: 310000001 cycles: 110057835 heartbeat IPC: 3.083 cumulative IPC: 2.666 (Simulation time: 02 hr 27 min 40 sec)
Heartbeat CPU 0 instructions: 320000003 cycles: 113282141 heartbeat IPC: 3.101 cumulative IPC: 2.68 (Simulation time: 02 hr 32 min 12 sec)
Heartbeat CPU 0 instructions: 330000003 cycles: 116556815 heartbeat IPC: 3.054 cumulative IPC: 2.692 (Simulation time: 02 hr 36 min 44 sec)
Heartbeat CPU 0 instructions: 340000000 cycles: 123198921 heartbeat IPC: 1.506 cumulative IPC: 2.621 (Simulation time: 02 hr 43 min 47 sec)
Heartbeat CPU 0 instructions: 350000000 cycles: 132172973 heartbeat IPC: 1.114 cumulative IPC: 2.508 (Simulation time: 02 hr 52 min 31 sec)
Heartbeat CPU 0 instructions: 360000004 cycles: 141202488 heartbeat IPC: 1.107 cumulative IPC: 2.409 (Simulation time: 03 hr 01 min 15 sec)
Heartbeat CPU 0 instructions: 370000000 cycles: 144273067 heartbeat IPC: 3.257 cumulative IPC: 2.429 (Simulation time: 03 hr 05 min 40 sec)
Heartbeat CPU 0 instructions: 380000001 cycles: 147323389 heartbeat IPC: 3.278 cumulative IPC: 2.448 (Simulation time: 03 hr 10 min 12 sec)
Heartbeat CPU 0 instructions: 390000002 cycles: 150414497 heartbeat IPC: 3.235 cumulative IPC: 2.466 (Simulation time: 03 hr 14 min 40 sec)
Heartbeat CPU 0 instructions: 400000004 cycles: 153404555 heartbeat IPC: 3.344 cumulative IPC: 2.485 (Simulation time: 03 hr 19 min 04 sec)
Heartbeat CPU 0 instructions: 410000001 cycles: 156548167 heartbeat IPC: 3.181 cumulative IPC: 2.5 (Simulation time: 03 hr 23 min 31 sec)
Heartbeat CPU 0 instructions: 420000002 cycles: 160017931 heartbeat IPC: 2.882 cumulative IPC: 2.509 (Simulation time: 03 hr 28 min 15 sec)
Heartbeat CPU 0 instructions: 430000001 cycles: 163137467 heartbeat IPC: 3.206 cumulative IPC: 2.523 (Simulation time: 03 hr 32 min 46 sec)
Heartbeat CPU 0 instructions: 440000004 cycles: 166485907 heartbeat IPC: 2.986 cumulative IPC: 2.533 (Simulation time: 03 hr 37 min 22 sec)
Heartbeat CPU 0 instructions: 450000002 cycles: 169553227 heartbeat IPC: 3.26 cumulative IPC: 2.548 (Simulation time: 03 hr 41 min 53 sec)
Heartbeat CPU 0 instructions: 460000000 cycles: 172660358 heartbeat IPC: 3.218 cumulative IPC: 2.561 (Simulation time: 03 hr 46 min 22 sec)
Heartbeat CPU 0 instructions: 470000001 cycles: 175639290 heartbeat IPC: 3.357 cumulative IPC: 2.575 (Simulation time: 03 hr 50 min 47 sec)
Heartbeat CPU 0 instructions: 480000003 cycles: 178894153 heartbeat IPC: 3.072 cumulative IPC: 2.585 (Simulation time: 03 hr 55 min 22 sec)
Heartbeat CPU 0 instructions: 490000004 cycles: 181838598 heartbeat IPC: 3.396 cumulative IPC: 2.599 (Simulation time: 03 hr 59 min 43 sec)
Heartbeat CPU 0 instructions: 500000004 cycles: 184940053 heartbeat IPC: 3.224 cumulative IPC: 2.61 (Simulation time: 04 hr 04 min 11 sec)
Heartbeat CPU 0 instructions: 510000003 cycles: 188190416 heartbeat IPC: 3.077 cumulative IPC: 2.619 (Simulation time: 04 hr 08 min 46 sec)
Heartbeat CPU 0 instructions: 520000001 cycles: 191264425 heartbeat IPC: 3.253 cumulative IPC: 2.63 (Simulation time: 04 hr 13 min 22 sec)
Heartbeat CPU 0 instructions: 530000001 cycles: 194394091 heartbeat IPC: 3.195 cumulative IPC: 2.639 (Simulation time: 04 hr 17 min 52 sec)
Heartbeat CPU 0 instructions: 540000001 cycles: 197500576 heartbeat IPC: 3.219 cumulative IPC: 2.649 (Simulation time: 04 hr 22 min 19 sec)
Heartbeat CPU 0 instructions: 550000001 cycles: 200647770 heartbeat IPC: 3.177 cumulative IPC: 2.658 (Simulation time: 04 hr 26 min 49 sec)
Heartbeat CPU 0 instructions: 560000004 cycles: 204027959 heartbeat IPC: 2.958 cumulative IPC: 2.663 (Simulation time: 04 hr 31 min 30 sec)
Heartbeat CPU 0 instructions: 570000004 cycles: 209350521 heartbeat IPC: 1.879 cumulative IPC: 2.642 (Simulation time: 04 hr 37 min 47 sec)
Heartbeat CPU 0 instructions: 580000003 cycles: 216227961 heartbeat IPC: 1.454 cumulative IPC: 2.602 (Simulation time: 04 hr 45 min 06 sec)
Heartbeat CPU 0 instructions: 590000002 cycles: 228414578 heartbeat IPC: 0.8206 cumulative IPC: 2.501 (Simulation time: 04 hr 55 min 57 sec)
Heartbeat CPU 0 instructions: 600000000 cycles: 231601861 heartbeat IPC: 3.137 cumulative IPC: 2.511 (Simulation time: 05 hr 00 min 27 sec)
Heartbeat CPU 0 instructions: 610000002 cycles: 234702405 heartbeat IPC: 3.225 cumulative IPC: 2.521 (Simulation time: 05 hr 04 min 51 sec)
Heartbeat CPU 0 instructions: 620000001 cycles: 237577950 heartbeat IPC: 3.478 cumulative IPC: 2.533 (Simulation time: 05 hr 09 min 14 sec)
Heartbeat CPU 0 instructions: 630000002 cycles: 240731179 heartbeat IPC: 3.171 cumulative IPC: 2.542 (Simulation time: 05 hr 13 min 41 sec)
Heartbeat CPU 0 instructions: 640000004 cycles: 243755144 heartbeat IPC: 3.307 cumulative IPC: 2.552 (Simulation time: 05 hr 18 min 07 sec)
Heartbeat CPU 0 instructions: 650000000 cycles: 246601625 heartbeat IPC: 3.513 cumulative IPC: 2.563 (Simulation time: 05 hr 22 min 25 sec)
Simulation finished CPU 0 instructions: 600000001 cycles: 234064542 cumulative IPC: 2.563 (Simulation time: 05 hr 22 min 25 sec)
Simulation complete CPU 0 instructions: 600000001 cycles: 234064542 cumulative IPC: 2.563 (Simulation time: 05 hr 22 min 25 sec)

ChampSim completed all CPUs

=== Simulation ===
CPU 0 runs traces/400.perlbench-41B.champsimtrace.xz
Region of Interest Statistics

CPU 0 cumulative IPC: 2.563 instructions: 600000001 cycles: 234064542
CPU 0 Branch Prediction Accuracy: 98.9% MPKI: 2.275 Average ROB Occupancy at Mispredict: 91.21
Branch type MPKI
BRANCH_DIRECT_JUMP: 0.0123
BRANCH_INDIRECT: 0.323
BRANCH_CONDITIONAL: 1.73
BRANCH_DIRECT_CALL: 0.0043
BRANCH_INDIRECT_CALL: 0.2
BRANCH_RETURN: 0.00828

LLC TOTAL        ACCESS:     675267 HIT:     241487 MISS:     433780
LLC LOAD         ACCESS:     308496 HIT:     141718 MISS:     166778
LLC RFO          ACCESS:      25113 HIT:       8591 MISS:      16522
LLC PREFETCH     ACCESS:     262309 HIT:      66112 MISS:     196197
LLC WRITE        ACCESS:      63778 HIT:      23535 MISS:      40243
LLC TRANSLATION  ACCESS:      15571 HIT:       1531 MISS:      14040
LLC PREFETCH REQUESTED:     262314 ISSUED:     262309 USEFUL:      58864 USELESS:     114466
LLC AVERAGE MISS LATENCY: 780.4 cycles
cpu0_DTLB TOTAL        ACCESS:  131047906 HIT:  130346302 MISS:     701604
cpu0_DTLB LOAD         ACCESS:  131047906 HIT:  130346302 MISS:     701604
cpu0_DTLB RFO          ACCESS:          0 HIT:          0 MISS:          0
cpu0_DTLB PREFETCH     ACCESS:          0 HIT:          0 MISS:          0
cpu0_DTLB WRITE        ACCESS:          0 HIT:          0 MISS:          0
cpu0_DTLB TRANSLATION  ACCESS:          0 HIT:          0 MISS:          0
cpu0_DTLB PREFETCH REQUESTED:          0 ISSUED:          0 USEFUL:          0 USELESS:          0
cpu0_DTLB AVERAGE MISS LATENCY: 21.36 cycles
cpu0_ITLB TOTAL        ACCESS:    4859329 HIT:    4798022 MISS:      61307
cpu0_ITLB LOAD         ACCESS:    4859329 HIT:    4798022 MISS:      61307
cpu0_ITLB RFO          ACCESS:          0 HIT:          0 MISS:          0
cpu0_ITLB PREFETCH     ACCESS:          0 HIT:          0 MISS:          0
cpu0_ITLB WRITE        ACCESS:          0 HIT:          0 MISS:          0
cpu0_ITLB TRANSLATION  ACCESS:          0 HIT:          0 MISS:          0
cpu0_ITLB PREFETCH REQUESTED:          0 ISSUED:          0 USEFUL:          0 USELESS:          0
cpu0_ITLB AVERAGE MISS LATENCY: 7.221 cycles
cpu0_L1D TOTAL        ACCESS:  176712662 HIT:  175346427 MISS:    1366235
cpu0_L1D LOAD         ACCESS:   93634672 HIT:   92581329 MISS:    1053343
cpu0_L1D RFO          ACCESS:          0 HIT:          0 MISS:          0
cpu0_L1D PREFETCH     ACCESS:          0 HIT:          0 MISS:          0
cpu0_L1D WRITE        ACCESS:   83053524 HIT:   82763500 MISS:     290024
cpu0_L1D TRANSLATION  ACCESS:      24466 HIT:       1598 MISS:      22868
cpu0_L1D PREFETCH REQUESTED:          0 ISSUED:          0 USEFUL:          0 USELESS:          0
cpu0_L1D AVERAGE MISS LATENCY: 118.6 cycles
cpu0_L1I TOTAL        ACCESS:    5636305 HIT:    4835346 MISS:     800959
cpu0_L1I LOAD         ACCESS:    5636305 HIT:    4835346 MISS:     800959
cpu0_L1I RFO          ACCESS:          0 HIT:          0 MISS:          0
cpu0_L1I PREFETCH     ACCESS:          0 HIT:          0 MISS:          0
cpu0_L1I WRITE        ACCESS:          0 HIT:          0 MISS:          0
cpu0_L1I TRANSLATION  ACCESS:          0 HIT:          0 MISS:          0
cpu0_L1I PREFETCH REQUESTED:          0 ISSUED:          0 USEFUL:          0 USELESS:          0
cpu0_L1I AVERAGE MISS LATENCY: 12.84 cycles
cpu0_L2C TOTAL        ACCESS:    1381654 HIT:    1031602 MISS:     350052
cpu0_L2C LOAD         ACCESS:    1124066 HIT:     815570 MISS:     308496
cpu0_L2C RFO          ACCESS:      64504 HIT:      39391 MISS:      25113
cpu0_L2C PREFETCH     ACCESS:          0 HIT:          0 MISS:          0
cpu0_L2C WRITE        ACCESS:     170301 HIT:     169429 MISS:        872
cpu0_L2C TRANSLATION  ACCESS:      22783 HIT:       7212 MISS:      15571
cpu0_L2C PREFETCH REQUESTED:          0 ISSUED:          0 USEFUL:          0 USELESS:          0
cpu0_L2C AVERAGE MISS LATENCY: 486.1 cycles
cpu0_STLB TOTAL        ACCESS:     508385 HIT:     485598 MISS:      22787
cpu0_STLB LOAD         ACCESS:     508385 HIT:     485598 MISS:      22787
cpu0_STLB RFO          ACCESS:          0 HIT:          0 MISS:          0
cpu0_STLB PREFETCH     ACCESS:          0 HIT:          0 MISS:          0
cpu0_STLB WRITE        ACCESS:          0 HIT:          0 MISS:          0
cpu0_STLB TRANSLATION  ACCESS:          0 HIT:          0 MISS:          0
cpu0_STLB PREFETCH REQUESTED:          0 ISSUED:          0 USEFUL:          0 USELESS:          0
cpu0_STLB AVERAGE MISS LATENCY: 566.7 cycles

DRAM Statistics

Channel 0 RQ ROW_BUFFER_HIT:     124250
  ROW_BUFFER_MISS:     254346
 AVG DBUS CONGESTED CYCLE: 3.912
WQ ROW_BUFFER_HIT: Channel 0 
  ROW_BUFFER_MISS:       4660
  FULL:      36874
