WARNING: physical memory size is smaller than virtual memory size.

*** ChampSim Multicore Out-of-Order Simulator ***
Warmup Instructions: 50000000
Simulation Instructions: 600000000
Number of CPUs: 1
Page size: 4096

CPU 0 Tage branch predictor
Off-chip DRAM Size: 4 GiB Channels: 1 Width: 64-bit Data Race: 3200 MT/s
Heartbeat CPU 0 instructions: 10000000 cycles: 2500061 heartbeat IPC: 4 cumulative IPC: 4 (Simulation time: 00 hr 04 min 29 sec)
Heartbeat CPU 0 instructions: 20000000 cycles: 5000061 heartbeat IPC: 4 cumulative IPC: 4 (Simulation time: 00 hr 08 min 38 sec)
Heartbeat CPU 0 instructions: 30000000 cycles: 7500061 heartbeat IPC: 4 cumulative IPC: 4 (Simulation time: 00 hr 12 min 42 sec)
Heartbeat CPU 0 instructions: 40000000 cycles: 10000061 heartbeat IPC: 4 cumulative IPC: 4 (Simulation time: 00 hr 16 min 46 sec)
Heartbeat CPU 0 instructions: 50000000 cycles: 12500061 heartbeat IPC: 4 cumulative IPC: 4 (Simulation time: 00 hr 20 min 54 sec)
Warmup finished CPU 0 instructions: 50000000 cycles: 12500062 cumulative IPC: 4 (Simulation time: 00 hr 20 min 54 sec)
Warmup complete CPU 0 instructions: 50000000 cycles: 12500062 cumulative IPC: 4 (Simulation time: 00 hr 20 min 54 sec)
Heartbeat CPU 0 instructions: 60000004 cycles: 15504100 heartbeat IPC: 3.329 cumulative IPC: 3.329 (Simulation time: 00 hr 25 min 52 sec)
Heartbeat CPU 0 instructions: 70000003 cycles: 18373617 heartbeat IPC: 3.485 cumulative IPC: 3.405 (Simulation time: 00 hr 30 min 44 sec)
Heartbeat CPU 0 instructions: 80000002 cycles: 21383533 heartbeat IPC: 3.322 cumulative IPC: 3.377 (Simulation time: 00 hr 35 min 39 sec)
Heartbeat CPU 0 instructions: 90000000 cycles: 24104255 heartbeat IPC: 3.675 cumulative IPC: 3.447 (Simulation time: 00 hr 40 min 23 sec)
Heartbeat CPU 0 instructions: 100000003 cycles: 26859330 heartbeat IPC: 3.63 cumulative IPC: 3.482 (Simulation time: 00 hr 45 min 13 sec)
Heartbeat CPU 0 instructions: 110000001 cycles: 29757799 heartbeat IPC: 3.45 cumulative IPC: 3.477 (Simulation time: 00 hr 50 min 02 sec)
Heartbeat CPU 0 instructions: 120000001 cycles: 32473952 heartbeat IPC: 3.682 cumulative IPC: 3.505 (Simulation time: 00 hr 54 min 48 sec)
Heartbeat CPU 0 instructions: 130000003 cycles: 35370630 heartbeat IPC: 3.452 cumulative IPC: 3.498 (Simulation time: 00 hr 59 min 41 sec)
Heartbeat CPU 0 instructions: 140000002 cycles: 38206882 heartbeat IPC: 3.526 cumulative IPC: 3.501 (Simulation time: 01 hr 04 min 29 sec)
Heartbeat CPU 0 instructions: 150000001 cycles: 40975811 heartbeat IPC: 3.612 cumulative IPC: 3.512 (Simulation time: 01 hr 09 min 15 sec)
Heartbeat CPU 0 instructions: 160000000 cycles: 43893181 heartbeat IPC: 3.428 cumulative IPC: 3.504 (Simulation time: 01 hr 14 min 05 sec)
Heartbeat CPU 0 instructions: 170000001 cycles: 46816650 heartbeat IPC: 3.421 cumulative IPC: 3.497 (Simulation time: 01 hr 18 min 57 sec)
Heartbeat CPU 0 instructions: 180000000 cycles: 49608626 heartbeat IPC: 3.582 cumulative IPC: 3.503 (Simulation time: 01 hr 23 min 52 sec)
Heartbeat CPU 0 instructions: 190000002 cycles: 52314925 heartbeat IPC: 3.695 cumulative IPC: 3.516 (Simulation time: 01 hr 28 min 42 sec)
Heartbeat CPU 0 instructions: 200000002 cycles: 55138402 heartbeat IPC: 3.542 cumulative IPC: 3.518 (Simulation time: 01 hr 33 min 34 sec)
Heartbeat CPU 0 instructions: 210000000 cycles: 58028965 heartbeat IPC: 3.46 cumulative IPC: 3.514 (Simulation time: 01 hr 38 min 27 sec)
Heartbeat CPU 0 instructions: 220000001 cycles: 60778012 heartbeat IPC: 3.638 cumulative IPC: 3.521 (Simulation time: 01 hr 43 min 17 sec)
Heartbeat CPU 0 instructions: 230000002 cycles: 63665869 heartbeat IPC: 3.463 cumulative IPC: 3.518 (Simulation time: 01 hr 48 min 11 sec)
Heartbeat CPU 0 instructions: 240000004 cycles: 66617665 heartbeat IPC: 3.388 cumulative IPC: 3.511 (Simulation time: 01 hr 53 min 09 sec)
Heartbeat CPU 0 instructions: 250000003 cycles: 69508009 heartbeat IPC: 3.46 cumulative IPC: 3.508 (Simulation time: 01 hr 57 min 58 sec)
Heartbeat CPU 0 instructions: 260000001 cycles: 72292293 heartbeat IPC: 3.592 cumulative IPC: 3.512 (Simulation time: 02 hr 02 min 46 sec)
Heartbeat CPU 0 instructions: 270000002 cycles: 78089618 heartbeat IPC: 1.725 cumulative IPC: 3.354 (Simulation time: 02 hr 09 min 39 sec)
Heartbeat CPU 0 instructions: 280000000 cycles: 88113061 heartbeat IPC: 0.9977 cumulative IPC: 3.042 (Simulation time: 02 hr 19 min 25 sec)
Heartbeat CPU 0 instructions: 290000000 cycles: 97423458 heartbeat IPC: 1.074 cumulative IPC: 2.826 (Simulation time: 02 hr 28 min 48 sec)
Heartbeat CPU 0 instructions: 300000003 cycles: 103033470 heartbeat IPC: 1.783 cumulative IPC: 2.761 (Simulation time: 02 hr 36 min 08 sec)
Heartbeat CPU 0 instructions: 310000001 cycles: 112070710 heartbeat IPC: 1.107 cumulative IPC: 2.611 (Simulation time: 02 hr 45 min 35 sec)
Heartbeat CPU 0 instructions: 320000004 cycles: 116093221 heartbeat IPC: 2.486 cumulative IPC: 2.606 (Simulation time: 02 hr 51 min 33 sec)
Heartbeat CPU 0 instructions: 330000000 cycles: 119247534 heartbeat IPC: 3.17 cumulative IPC: 2.623 (Simulation time: 02 hr 56 min 43 sec)
Heartbeat CPU 0 instructions: 340000001 cycles: 122393046 heartbeat IPC: 3.179 cumulative IPC: 2.639 (Simulation time: 03 hr 01 min 55 sec)
Heartbeat CPU 0 instructions: 350000000 cycles: 125520394 heartbeat IPC: 3.198 cumulative IPC: 2.654 (Simulation time: 03 hr 07 min 02 sec)
Heartbeat CPU 0 instructions: 360000004 cycles: 128370452 heartbeat IPC: 3.509 cumulative IPC: 2.675 (Simulation time: 03 hr 12 min 01 sec)
Heartbeat CPU 0 instructions: 370000001 cycles: 131171563 heartbeat IPC: 3.57 cumulative IPC: 2.697 (Simulation time: 03 hr 16 min 59 sec)
Heartbeat CPU 0 instructions: 380000004 cycles: 133994994 heartbeat IPC: 3.542 cumulative IPC: 2.716 (Simulation time: 03 hr 21 min 56 sec)
Heartbeat CPU 0 instructions: 390000002 cycles: 136949134 heartbeat IPC: 3.385 cumulative IPC: 2.732 (Simulation time: 03 hr 27 min 03 sec)
Heartbeat CPU 0 instructions: 400000000 cycles: 139897585 heartbeat IPC: 3.392 cumulative IPC: 2.747 (Simulation time: 03 hr 32 min 12 sec)
Heartbeat CPU 0 instructions: 410000000 cycles: 145610738 heartbeat IPC: 1.75 cumulative IPC: 2.705 (Simulation time: 03 hr 39 min 06 sec)
Heartbeat CPU 0 instructions: 420000003 cycles: 155066696 heartbeat IPC: 1.058 cumulative IPC: 2.595 (Simulation time: 03 hr 48 min 38 sec)
Heartbeat CPU 0 instructions: 430000004 cycles: 160862537 heartbeat IPC: 1.725 cumulative IPC: 2.561 (Simulation time: 03 hr 55 min 58 sec)
Heartbeat CPU 0 instructions: 440000004 cycles: 167073295 heartbeat IPC: 1.61 cumulative IPC: 2.523 (Simulation time: 04 hr 03 min 28 sec)
Heartbeat CPU 0 instructions: 450000000 cycles: 172762002 heartbeat IPC: 1.758 cumulative IPC: 2.496 (Simulation time: 04 hr 10 min 30 sec)
Heartbeat CPU 0 instructions: 460000002 cycles: 183539597 heartbeat IPC: 0.9279 cumulative IPC: 2.397 (Simulation time: 04 hr 20 min 53 sec)
Heartbeat CPU 0 instructions: 470000003 cycles: 191633549 heartbeat IPC: 1.235 cumulative IPC: 2.345 (Simulation time: 04 hr 29 min 37 sec)
Heartbeat CPU 0 instructions: 480000000 cycles: 195109804 heartbeat IPC: 2.877 cumulative IPC: 2.355 (Simulation time: 04 hr 34 min 59 sec)
Heartbeat CPU 0 instructions: 490000001 cycles: 198405031 heartbeat IPC: 3.035 cumulative IPC: 2.367 (Simulation time: 04 hr 40 min 14 sec)
Heartbeat CPU 0 instructions: 500000002 cycles: 201469814 heartbeat IPC: 3.263 cumulative IPC: 2.381 (Simulation time: 04 hr 45 min 18 sec)
Heartbeat CPU 0 instructions: 510000000 cycles: 204372777 heartbeat IPC: 3.445 cumulative IPC: 2.397 (Simulation time: 04 hr 50 min 18 sec)
Heartbeat CPU 0 instructions: 520000000 cycles: 207311475 heartbeat IPC: 3.403 cumulative IPC: 2.413 (Simulation time: 04 hr 55 min 19 sec)
Heartbeat CPU 0 instructions: 530000001 cycles: 216176693 heartbeat IPC: 1.128 cumulative IPC: 2.357 (Simulation time: 05 hr 04 min 27 sec)
Heartbeat CPU 0 instructions: 540000000 cycles: 226115152 heartbeat IPC: 1.006 cumulative IPC: 2.294 (Simulation time: 05 hr 14 min 25 sec)
Heartbeat CPU 0 instructions: 550000004 cycles: 237669384 heartbeat IPC: 0.8655 cumulative IPC: 2.221 (Simulation time: 05 hr 25 min 38 sec)
Heartbeat CPU 0 instructions: 560000004 cycles: 241500161 heartbeat IPC: 2.61 cumulative IPC: 2.227 (Simulation time: 05 hr 31 min 41 sec)
Heartbeat CPU 0 instructions: 570000002 cycles: 244326053 heartbeat IPC: 3.539 cumulative IPC: 2.243 (Simulation time: 05 hr 36 min 47 sec)
Heartbeat CPU 0 instructions: 580000000 cycles: 247253699 heartbeat IPC: 3.416 cumulative IPC: 2.258 (Simulation time: 05 hr 41 min 45 sec)
Heartbeat CPU 0 instructions: 590000001 cycles: 250180153 heartbeat IPC: 3.417 cumulative IPC: 2.272 (Simulation time: 05 hr 47 min 08 sec)
Heartbeat CPU 0 instructions: 600000003 cycles: 252870653 heartbeat IPC: 3.717 cumulative IPC: 2.288 (Simulation time: 05 hr 52 min 16 sec)
Heartbeat CPU 0 instructions: 610000001 cycles: 255737754 heartbeat IPC: 3.488 cumulative IPC: 2.302 (Simulation time: 05 hr 57 min 22 sec)
Heartbeat CPU 0 instructions: 620000004 cycles: 258691660 heartbeat IPC: 3.385 cumulative IPC: 2.315 (Simulation time: 06 hr 02 min 45 sec)
Heartbeat CPU 0 instructions: 630000002 cycles: 261502218 heartbeat IPC: 3.558 cumulative IPC: 2.329 (Simulation time: 06 hr 08 min 22 sec)
Heartbeat CPU 0 instructions: 640000004 cycles: 264549292 heartbeat IPC: 3.282 cumulative IPC: 2.341 (Simulation time: 06 hr 13 min 24 sec)
Heartbeat CPU 0 instructions: 650000001 cycles: 267260417 heartbeat IPC: 3.689 cumulative IPC: 2.355 (Simulation time: 06 hr 18 min 22 sec)
Simulation finished CPU 0 instructions: 600000001 cycles: 254760356 cumulative IPC: 2.355 (Simulation time: 06 hr 18 min 22 sec)
Simulation complete CPU 0 instructions: 600000001 cycles: 254760356 cumulative IPC: 2.355 (Simulation time: 06 hr 18 min 22 sec)

ChampSim completed all CPUs

=== Simulation ===
CPU 0 runs traces/400.perlbench-50B.champsimtrace.xz
Region of Interest Statistics

CPU 0 cumulative IPC: 2.355 instructions: 600000001 cycles: 254760356
CPU 0 Branch Prediction Accuracy: 99.01% MPKI: 2.04 Average ROB Occupancy at Mispredict: 94.71
Branch type MPKI
BRANCH_DIRECT_JUMP: 0.0176
BRANCH_INDIRECT: 0.38
BRANCH_CONDITIONAL: 1.19
BRANCH_DIRECT_CALL: 0.0067
BRANCH_INDIRECT_CALL: 0.431
BRANCH_RETURN: 0.0161

LLC TOTAL        ACCESS:     565162 HIT:     179783 MISS:     385379
LLC LOAD         ACCESS:     376556 HIT:     111393 MISS:     265163
LLC RFO          ACCESS:      32617 HIT:       8051 MISS:      24566
LLC PREFETCH     ACCESS:      54208 HIT:      27697 MISS:      26511
LLC WRITE        ACCESS:      83725 HIT:      30629 MISS:      53096
LLC TRANSLATION  ACCESS:      18056 HIT:       2013 MISS:      16043
LLC PREFETCH REQUESTED:      54208 ISSUED:      54208 USEFUL:      15389 USELESS:       7094
LLC AVERAGE MISS LATENCY: 541.5 cycles
cpu0_DTLB TOTAL        ACCESS:  133145043 HIT:  131793155 MISS:    1351888
cpu0_DTLB LOAD         ACCESS:  133145043 HIT:  131793155 MISS:    1351888
cpu0_DTLB RFO          ACCESS:          0 HIT:          0 MISS:          0
cpu0_DTLB PREFETCH     ACCESS:          0 HIT:          0 MISS:          0
cpu0_DTLB WRITE        ACCESS:          0 HIT:          0 MISS:          0
cpu0_DTLB TRANSLATION  ACCESS:          0 HIT:          0 MISS:          0
cpu0_DTLB PREFETCH REQUESTED:          0 ISSUED:          0 USEFUL:          0 USELESS:          0
cpu0_DTLB AVERAGE MISS LATENCY: 13.99 cycles
cpu0_ITLB TOTAL        ACCESS:    8995494 HIT:    8785093 MISS:     210401
cpu0_ITLB LOAD         ACCESS:    8995494 HIT:    8785093 MISS:     210401
cpu0_ITLB RFO          ACCESS:          0 HIT:          0 MISS:          0
cpu0_ITLB PREFETCH     ACCESS:          0 HIT:          0 MISS:          0
cpu0_ITLB WRITE        ACCESS:          0 HIT:          0 MISS:          0
cpu0_ITLB TRANSLATION  ACCESS:          0 HIT:          0 MISS:          0
cpu0_ITLB PREFETCH REQUESTED:          0 ISSUED:          0 USEFUL:          0 USELESS:          0
cpu0_ITLB AVERAGE MISS LATENCY: 3.433 cycles
cpu0_L1D TOTAL        ACCESS:  178213742 HIT:  175279805 MISS:    2933937
cpu0_L1D LOAD         ACCESS:   92695917 HIT:   90289253 MISS:    2406664
cpu0_L1D RFO          ACCESS:          0 HIT:          0 MISS:          0
cpu0_L1D PREFETCH     ACCESS:          0 HIT:          0 MISS:          0
cpu0_L1D WRITE        ACCESS:   85489294 HIT:   84988546 MISS:     500748
cpu0_L1D TRANSLATION  ACCESS:      28531 HIT:       2006 MISS:      26525
cpu0_L1D PREFETCH REQUESTED:          0 ISSUED:          0 USEFUL:          0 USELESS:          0
cpu0_L1D AVERAGE MISS LATENCY: 65.09 cycles
cpu0_L1I TOTAL        ACCESS:   10514903 HIT:    8614375 MISS:    1900528
cpu0_L1I LOAD         ACCESS:   10514903 HIT:    8614375 MISS:    1900528
cpu0_L1I RFO          ACCESS:          0 HIT:          0 MISS:          0
cpu0_L1I PREFETCH     ACCESS:          0 HIT:          0 MISS:          0
cpu0_L1I WRITE        ACCESS:          0 HIT:          0 MISS:          0
cpu0_L1I TRANSLATION  ACCESS:          0 HIT:          0 MISS:          0
cpu0_L1I PREFETCH REQUESTED:          0 ISSUED:          0 USEFUL:          0 USELESS:          0
cpu0_L1I AVERAGE MISS LATENCY: 13.33 cycles
cpu0_L2C TOTAL        ACCESS:    3235921 HIT:    2807718 MISS:     428203
cpu0_L2C LOAD         ACCESS:    2709138 HIT:    2332582 MISS:     376556
cpu0_L2C RFO          ACCESS:     135521 HIT:     102904 MISS:      32617
cpu0_L2C PREFETCH     ACCESS:          0 HIT:          0 MISS:          0
cpu0_L2C WRITE        ACCESS:     364818 HIT:     363844 MISS:        974
cpu0_L2C TRANSLATION  ACCESS:      26444 HIT:       8388 MISS:      18056
cpu0_L2C PREFETCH REQUESTED:          0 ISSUED:          0 USEFUL:          0 USELESS:          0
cpu0_L2C AVERAGE MISS LATENCY: 468.8 cycles
cpu0_STLB TOTAL        ACCESS:    1010021 HIT:     983332 MISS:      26689
cpu0_STLB LOAD         ACCESS:    1010021 HIT:     983332 MISS:      26689
cpu0_STLB RFO          ACCESS:          0 HIT:          0 MISS:          0
cpu0_STLB PREFETCH     ACCESS:          0 HIT:          0 MISS:          0
cpu0_STLB WRITE        ACCESS:          0 HIT:          0 MISS:          0
cpu0_STLB TRANSLATION  ACCESS:          0 HIT:          0 MISS:          0
cpu0_STLB PREFETCH REQUESTED:          0 ISSUED:          0 USEFUL:          0 USELESS:          0
cpu0_STLB AVERAGE MISS LATENCY: 516 cycles

DRAM Statistics

Channel 0 RQ ROW_BUFFER_HIT:      55433
  ROW_BUFFER_MISS:     270992
 AVG DBUS CONGESTED CYCLE: 3.864
WQ ROW_BUFFER_HIT: Channel 0 
  ROW_BUFFER_MISS:       6994
  FULL:      52042
