WARNING: physical memory size is smaller than virtual memory size.

*** ChampSim Multicore Out-of-Order Simulator ***
Warmup Instructions: 50000000
Simulation Instructions: 600000000
Number of CPUs: 1
Page size: 4096

CPU 0 Tage branch predictor
Off-chip DRAM Size: 4 GiB Channels: 1 Width: 64-bit Data Race: 3200 MT/s
Heartbeat CPU 0 instructions: 10000001 cycles: 2500318 heartbeat IPC: 3.999 cumulative IPC: 3.999 (Simulation time: 00 hr 04 min 26 sec)
Heartbeat CPU 0 instructions: 20000002 cycles: 5037099 heartbeat IPC: 3.942 cumulative IPC: 3.971 (Simulation time: 00 hr 08 min 49 sec)
Heartbeat CPU 0 instructions: 30000002 cycles: 7537099 heartbeat IPC: 4 cumulative IPC: 3.98 (Simulation time: 00 hr 12 min 43 sec)
Heartbeat CPU 0 instructions: 40000002 cycles: 10037099 heartbeat IPC: 4 cumulative IPC: 3.985 (Simulation time: 00 hr 16 min 31 sec)
Heartbeat CPU 0 instructions: 50000002 cycles: 12537099 heartbeat IPC: 4 cumulative IPC: 3.988 (Simulation time: 00 hr 20 min 05 sec)
Warmup finished CPU 0 instructions: 50000002 cycles: 12537100 cumulative IPC: 3.988 (Simulation time: 00 hr 20 min 05 sec)
Warmup complete CPU 0 instructions: 50000002 cycles: 12537100 cumulative IPC: 3.988 (Simulation time: 00 hr 20 min 05 sec)
Heartbeat CPU 0 instructions: 60000001 cycles: 15510479 heartbeat IPC: 3.363 cumulative IPC: 3.363 (Simulation time: 00 hr 24 min 03 sec)
Heartbeat CPU 0 instructions: 70000004 cycles: 18583512 heartbeat IPC: 3.254 cumulative IPC: 3.308 (Simulation time: 00 hr 28 min 03 sec)
Heartbeat CPU 0 instructions: 80000001 cycles: 21625275 heartbeat IPC: 3.288 cumulative IPC: 3.301 (Simulation time: 00 hr 31 min 46 sec)
Heartbeat CPU 0 instructions: 90000001 cycles: 24571369 heartbeat IPC: 3.394 cumulative IPC: 3.324 (Simulation time: 00 hr 35 min 22 sec)
Heartbeat CPU 0 instructions: 100000000 cycles: 27487533 heartbeat IPC: 3.429 cumulative IPC: 3.344 (Simulation time: 00 hr 38 min 49 sec)
Heartbeat CPU 0 instructions: 110000000 cycles: 30435428 heartbeat IPC: 3.392 cumulative IPC: 3.352 (Simulation time: 00 hr 42 min 02 sec)
Heartbeat CPU 0 instructions: 120000001 cycles: 33408881 heartbeat IPC: 3.363 cumulative IPC: 3.354 (Simulation time: 00 hr 45 min 11 sec)
Heartbeat CPU 0 instructions: 130000001 cycles: 36263760 heartbeat IPC: 3.503 cumulative IPC: 3.372 (Simulation time: 00 hr 48 min 26 sec)
Heartbeat CPU 0 instructions: 140000001 cycles: 39306023 heartbeat IPC: 3.287 cumulative IPC: 3.362 (Simulation time: 00 hr 51 min 45 sec)
Heartbeat CPU 0 instructions: 150000001 cycles: 42317420 heartbeat IPC: 3.321 cumulative IPC: 3.358 (Simulation time: 00 hr 54 min 58 sec)
Heartbeat CPU 0 instructions: 160000004 cycles: 45331898 heartbeat IPC: 3.317 cumulative IPC: 3.354 (Simulation time: 00 hr 58 min 13 sec)
Heartbeat CPU 0 instructions: 170000004 cycles: 52168466 heartbeat IPC: 1.463 cumulative IPC: 3.028 (Simulation time: 01 hr 03 min 07 sec)
Heartbeat CPU 0 instructions: 180000004 cycles: 59292874 heartbeat IPC: 1.404 cumulative IPC: 2.78 (Simulation time: 01 hr 08 min 13 sec)
Heartbeat CPU 0 instructions: 190000001 cycles: 66886413 heartbeat IPC: 1.317 cumulative IPC: 2.576 (Simulation time: 01 hr 13 min 30 sec)
Heartbeat CPU 0 instructions: 200000004 cycles: 69826798 heartbeat IPC: 3.401 cumulative IPC: 2.618 (Simulation time: 01 hr 16 min 40 sec)
Heartbeat CPU 0 instructions: 210000001 cycles: 72763802 heartbeat IPC: 3.405 cumulative IPC: 2.657 (Simulation time: 01 hr 19 min 51 sec)
Heartbeat CPU 0 instructions: 220000000 cycles: 75647332 heartbeat IPC: 3.468 cumulative IPC: 2.694 (Simulation time: 01 hr 22 min 56 sec)
Heartbeat CPU 0 instructions: 230000002 cycles: 78626792 heartbeat IPC: 3.356 cumulative IPC: 2.724 (Simulation time: 01 hr 26 min 09 sec)
Heartbeat CPU 0 instructions: 240000003 cycles: 81637314 heartbeat IPC: 3.322 cumulative IPC: 2.75 (Simulation time: 01 hr 29 min 24 sec)
Heartbeat CPU 0 instructions: 250000000 cycles: 84634865 heartbeat IPC: 3.336 cumulative IPC: 2.774 (Simulation time: 01 hr 32 min 43 sec)
Heartbeat CPU 0 instructions: 260000002 cycles: 87582248 heartbeat IPC: 3.393 cumulative IPC: 2.798 (Simulation time: 01 hr 35 min 56 sec)
Heartbeat CPU 0 instructions: 270000002 cycles: 90479411 heartbeat IPC: 3.452 cumulative IPC: 2.823 (Simulation time: 01 hr 38 min 59 sec)
Heartbeat CPU 0 instructions: 280000002 cycles: 93345493 heartbeat IPC: 3.489 cumulative IPC: 2.846 (Simulation time: 01 hr 42 min 05 sec)
Heartbeat CPU 0 instructions: 290000002 cycles: 96291788 heartbeat IPC: 3.394 cumulative IPC: 2.866 (Simulation time: 01 hr 45 min 12 sec)
Heartbeat CPU 0 instructions: 300000003 cycles: 99165017 heartbeat IPC: 3.48 cumulative IPC: 2.886 (Simulation time: 01 hr 48 min 22 sec)
Heartbeat CPU 0 instructions: 310000001 cycles: 102166146 heartbeat IPC: 3.332 cumulative IPC: 2.901 (Simulation time: 01 hr 51 min 32 sec)
Heartbeat CPU 0 instructions: 320000003 cycles: 105152555 heartbeat IPC: 3.349 cumulative IPC: 2.915 (Simulation time: 01 hr 54 min 38 sec)
Heartbeat CPU 0 instructions: 330000003 cycles: 108112482 heartbeat IPC: 3.378 cumulative IPC: 2.93 (Simulation time: 01 hr 57 min 55 sec)
Heartbeat CPU 0 instructions: 340000000 cycles: 115053257 heartbeat IPC: 1.441 cumulative IPC: 2.829 (Simulation time: 02 hr 02 min 48 sec)
Heartbeat CPU 0 instructions: 350000000 cycles: 122401345 heartbeat IPC: 1.361 cumulative IPC: 2.731 (Simulation time: 02 hr 08 min 01 sec)
Heartbeat CPU 0 instructions: 360000004 cycles: 130092002 heartbeat IPC: 1.3 cumulative IPC: 2.637 (Simulation time: 02 hr 13 min 21 sec)
Heartbeat CPU 0 instructions: 370000000 cycles: 133043420 heartbeat IPC: 3.388 cumulative IPC: 2.655 (Simulation time: 02 hr 16 min 26 sec)
Heartbeat CPU 0 instructions: 380000003 cycles: 135949224 heartbeat IPC: 3.441 cumulative IPC: 2.674 (Simulation time: 02 hr 19 min 31 sec)
Heartbeat CPU 0 instructions: 390000002 cycles: 138914684 heartbeat IPC: 3.372 cumulative IPC: 2.69 (Simulation time: 02 hr 22 min 41 sec)
Heartbeat CPU 0 instructions: 400000004 cycles: 141811391 heartbeat IPC: 3.452 cumulative IPC: 2.707 (Simulation time: 02 hr 25 min 45 sec)
Heartbeat CPU 0 instructions: 410000002 cycles: 144734329 heartbeat IPC: 3.421 cumulative IPC: 2.723 (Simulation time: 02 hr 28 min 58 sec)
Heartbeat CPU 0 instructions: 420000003 cycles: 147826461 heartbeat IPC: 3.234 cumulative IPC: 2.735 (Simulation time: 02 hr 32 min 20 sec)
Heartbeat CPU 0 instructions: 430000001 cycles: 150827281 heartbeat IPC: 3.332 cumulative IPC: 2.748 (Simulation time: 02 hr 35 min 38 sec)
Heartbeat CPU 0 instructions: 440000004 cycles: 153944450 heartbeat IPC: 3.208 cumulative IPC: 2.758 (Simulation time: 02 hr 38 min 53 sec)
Heartbeat CPU 0 instructions: 450000002 cycles: 156856697 heartbeat IPC: 3.434 cumulative IPC: 2.772 (Simulation time: 02 hr 42 min 07 sec)
Heartbeat CPU 0 instructions: 460000000 cycles: 159779199 heartbeat IPC: 3.422 cumulative IPC: 2.785 (Simulation time: 02 hr 45 min 16 sec)
Heartbeat CPU 0 instructions: 470000001 cycles: 162622926 heartbeat IPC: 3.517 cumulative IPC: 2.798 (Simulation time: 02 hr 48 min 26 sec)
Heartbeat CPU 0 instructions: 480000003 cycles: 165673033 heartbeat IPC: 3.279 cumulative IPC: 2.808 (Simulation time: 02 hr 51 min 38 sec)
Heartbeat CPU 0 instructions: 490000004 cycles: 168489780 heartbeat IPC: 3.55 cumulative IPC: 2.821 (Simulation time: 02 hr 54 min 47 sec)
Heartbeat CPU 0 instructions: 500000004 cycles: 171466731 heartbeat IPC: 3.359 cumulative IPC: 2.831 (Simulation time: 02 hr 57 min 56 sec)
Heartbeat CPU 0 instructions: 510000003 cycles: 174502129 heartbeat IPC: 3.294 cumulative IPC: 2.84 (Simulation time: 03 hr 01 min 13 sec)
Heartbeat CPU 0 instructions: 520000001 cycles: 177367066 heartbeat IPC: 3.49 cumulative IPC: 2.851 (Simulation time: 03 hr 04 min 27 sec)
Heartbeat CPU 0 instructions: 530000001 cycles: 180366826 heartbeat IPC: 3.334 cumulative IPC: 2.86 (Simulation time: 03 hr 07 min 40 sec)
Heartbeat CPU 0 instructions: 540000000 cycles: 183305816 heartbeat IPC: 3.403 cumulative IPC: 2.869 (Simulation time: 03 hr 10 min 54 sec)
Heartbeat CPU 0 instructions: 550000001 cycles: 186278096 heartbeat IPC: 3.364 cumulative IPC: 2.878 (Simulation time: 03 hr 14 min 06 sec)
Heartbeat CPU 0 instructions: 560000000 cycles: 189373016 heartbeat IPC: 3.231 cumulative IPC: 2.884 (Simulation time: 03 hr 17 min 25 sec)
Heartbeat CPU 0 instructions: 570000004 cycles: 194342947 heartbeat IPC: 2.012 cumulative IPC: 2.86 (Simulation time: 03 hr 21 min 18 sec)
Heartbeat CPU 0 instructions: 580000003 cycles: 202056994 heartbeat IPC: 1.296 cumulative IPC: 2.797 (Simulation time: 03 hr 26 min 27 sec)
Heartbeat CPU 0 instructions: 590000002 cycles: 211605687 heartbeat IPC: 1.047 cumulative IPC: 2.713 (Simulation time: 03 hr 32 min 10 sec)
Heartbeat CPU 0 instructions: 600000004 cycles: 214654571 heartbeat IPC: 3.28 cumulative IPC: 2.721 (Simulation time: 03 hr 35 min 13 sec)
Heartbeat CPU 0 instructions: 610000002 cycles: 217605567 heartbeat IPC: 3.389 cumulative IPC: 2.731 (Simulation time: 03 hr 37 min 58 sec)
Heartbeat CPU 0 instructions: 620000001 cycles: 220372056 heartbeat IPC: 3.615 cumulative IPC: 2.743 (Simulation time: 03 hr 40 min 20 sec)
Heartbeat CPU 0 instructions: 630000002 cycles: 223332279 heartbeat IPC: 3.378 cumulative IPC: 2.751 (Simulation time: 03 hr 42 min 44 sec)
Heartbeat CPU 0 instructions: 640000004 cycles: 226278044 heartbeat IPC: 3.395 cumulative IPC: 2.76 (Simulation time: 03 hr 45 min 04 sec)
Heartbeat CPU 0 instructions: 650000000 cycles: 229023387 heartbeat IPC: 3.643 cumulative IPC: 2.772 (Simulation time: 03 hr 47 min 00 sec)
Simulation finished CPU 0 instructions: 600000001 cycles: 216486289 cumulative IPC: 2.772 (Simulation time: 03 hr 47 min 00 sec)
Simulation complete CPU 0 instructions: 600000001 cycles: 216486289 cumulative IPC: 2.772 (Simulation time: 03 hr 47 min 00 sec)

ChampSim completed all CPUs

=== Simulation ===
CPU 0 runs traces/400.perlbench-41B.champsimtrace.xz
Region of Interest Statistics

CPU 0 cumulative IPC: 2.772 instructions: 600000001 cycles: 216486289
CPU 0 Branch Prediction Accuracy: 99.19% MPKI: 1.684 Average ROB Occupancy at Mispredict: 101.4
Branch type MPKI
BRANCH_DIRECT_JUMP: 0.0123
BRANCH_INDIRECT: 0.323
BRANCH_CONDITIONAL: 1.14
BRANCH_DIRECT_CALL: 0.0043
BRANCH_INDIRECT_CALL: 0.2
BRANCH_RETURN: 0.00828

LLC TOTAL        ACCESS:     463845 HIT:     230853 MISS:     232992
LLC LOAD         ACCESS:     309453 HIT:     114356 MISS:     195097
LLC RFO          ACCESS:      25116 HIT:      18685 MISS:       6431
LLC PREFETCH     ACCESS:      49052 HIT:      38453 MISS:      10599
LLC WRITE        ACCESS:      64483 HIT:      55771 MISS:       8712
LLC TRANSLATION  ACCESS:      15741 HIT:       3588 MISS:      12153
LLC PREFETCH REQUESTED:      49052 ISSUED:      49052 USEFUL:       3818 USELESS:       5830
LLC AVERAGE MISS LATENCY: 553.3 cycles
cpu0_DTLB TOTAL        ACCESS:  129769777 HIT:  129066441 MISS:     703336
cpu0_DTLB LOAD         ACCESS:  129769777 HIT:  129066441 MISS:     703336
cpu0_DTLB RFO          ACCESS:          0 HIT:          0 MISS:          0
cpu0_DTLB PREFETCH     ACCESS:          0 HIT:          0 MISS:          0
cpu0_DTLB WRITE        ACCESS:          0 HIT:          0 MISS:          0
cpu0_DTLB TRANSLATION  ACCESS:          0 HIT:          0 MISS:          0
cpu0_DTLB PREFETCH REQUESTED:          0 ISSUED:          0 USEFUL:          0 USELESS:          0
cpu0_DTLB AVERAGE MISS LATENCY: 15.91 cycles
cpu0_ITLB TOTAL        ACCESS:    4881414 HIT:    4818731 MISS:      62683
cpu0_ITLB LOAD         ACCESS:    4881414 HIT:    4818731 MISS:      62683
cpu0_ITLB RFO          ACCESS:          0 HIT:          0 MISS:          0
cpu0_ITLB PREFETCH     ACCESS:          0 HIT:          0 MISS:          0
cpu0_ITLB WRITE        ACCESS:          0 HIT:          0 MISS:          0
cpu0_ITLB TRANSLATION  ACCESS:          0 HIT:          0 MISS:          0
cpu0_ITLB PREFETCH REQUESTED:          0 ISSUED:          0 USEFUL:          0 USELESS:          0
cpu0_ITLB AVERAGE MISS LATENCY: 6.566 cycles
cpu0_L1D TOTAL        ACCESS:  174371248 HIT:  173015335 MISS:    1355913
cpu0_L1D LOAD         ACCESS:   91347421 HIT:   90296799 MISS:    1050622
cpu0_L1D RFO          ACCESS:          0 HIT:          0 MISS:          0
cpu0_L1D PREFETCH     ACCESS:          0 HIT:          0 MISS:          0
cpu0_L1D WRITE        ACCESS:   82999361 HIT:   82716932 MISS:     282429
cpu0_L1D TRANSLATION  ACCESS:      24466 HIT:       1604 MISS:      22862
cpu0_L1D PREFETCH REQUESTED:          0 ISSUED:          0 USEFUL:          0 USELESS:          0
cpu0_L1D AVERAGE MISS LATENCY: 91.71 cycles
cpu0_L1I TOTAL        ACCESS:    5660005 HIT:    4854025 MISS:     805980
cpu0_L1I LOAD         ACCESS:    5660005 HIT:    4854025 MISS:     805980
cpu0_L1I RFO          ACCESS:          0 HIT:          0 MISS:          0
cpu0_L1I PREFETCH     ACCESS:          0 HIT:          0 MISS:          0
cpu0_L1I WRITE        ACCESS:          0 HIT:          0 MISS:          0
cpu0_L1I TRANSLATION  ACCESS:          0 HIT:          0 MISS:          0
cpu0_L1I PREFETCH REQUESTED:          0 ISSUED:          0 USEFUL:          0 USELESS:          0
cpu0_L1I AVERAGE MISS LATENCY: 10.54 cycles
cpu0_L2C TOTAL        ACCESS:    1382059 HIT:    1030864 MISS:     351195
cpu0_L2C LOAD         ACCESS:    1124043 HIT:     814590 MISS:     309453
cpu0_L2C RFO          ACCESS:      64497 HIT:      39381 MISS:      25116
cpu0_L2C PREFETCH     ACCESS:          0 HIT:          0 MISS:          0
cpu0_L2C WRITE        ACCESS:     170735 HIT:     169850 MISS:        885
cpu0_L2C TRANSLATION  ACCESS:      22784 HIT:       7043 MISS:      15741
cpu0_L2C PREFETCH REQUESTED:          0 ISSUED:          0 USEFUL:          0 USELESS:          0
cpu0_L2C AVERAGE MISS LATENCY: 368 cycles
cpu0_STLB TOTAL        ACCESS:     508988 HIT:     486202 MISS:      22786
cpu0_STLB LOAD         ACCESS:     508988 HIT:     486202 MISS:      22786
cpu0_STLB RFO          ACCESS:          0 HIT:          0 MISS:          0
cpu0_STLB PREFETCH     ACCESS:          0 HIT:          0 MISS:          0
cpu0_STLB WRITE        ACCESS:          0 HIT:          0 MISS:          0
cpu0_STLB TRANSLATION  ACCESS:          0 HIT:          0 MISS:          0
cpu0_STLB PREFETCH REQUESTED:          0 ISSUED:          0 USEFUL:          0 USELESS:          0
cpu0_STLB AVERAGE MISS LATENCY: 385.2 cycles

DRAM Statistics

Channel 0 RQ ROW_BUFFER_HIT:      52782
  ROW_BUFFER_MISS:     169905
 AVG DBUS CONGESTED CYCLE: 3.772
WQ ROW_BUFFER_HIT: Channel 0 
  ROW_BUFFER_MISS:       3512
  FULL:       6102
