WARNING: physical memory size is smaller than virtual memory size.

*** ChampSim Multicore Out-of-Order Simulator ***
Warmup Instructions: 50000000
Simulation Instructions: 600000000
Number of CPUs: 1
Page size: 4096

CPU 0 Tage branch predictor
Off-chip DRAM Size: 4 GiB Channels: 1 Width: 64-bit Data Race: 3200 MT/s
Heartbeat CPU 0 instructions: 10000001 cycles: 2500318 heartbeat IPC: 3.999 cumulative IPC: 3.999 (Simulation time: 00 hr 04 min 45 sec)
Heartbeat CPU 0 instructions: 20000002 cycles: 5037105 heartbeat IPC: 3.942 cumulative IPC: 3.971 (Simulation time: 00 hr 09 min 19 sec)
Heartbeat CPU 0 instructions: 30000002 cycles: 7537105 heartbeat IPC: 4 cumulative IPC: 3.98 (Simulation time: 00 hr 13 min 43 sec)
Heartbeat CPU 0 instructions: 40000002 cycles: 10037105 heartbeat IPC: 4 cumulative IPC: 3.985 (Simulation time: 00 hr 18 min 04 sec)
Heartbeat CPU 0 instructions: 50000002 cycles: 12537105 heartbeat IPC: 4 cumulative IPC: 3.988 (Simulation time: 00 hr 22 min 30 sec)
Warmup finished CPU 0 instructions: 50000002 cycles: 12537106 cumulative IPC: 3.988 (Simulation time: 00 hr 22 min 30 sec)
Warmup complete CPU 0 instructions: 50000002 cycles: 12537106 cumulative IPC: 3.988 (Simulation time: 00 hr 22 min 30 sec)
Heartbeat CPU 0 instructions: 60000001 cycles: 15511555 heartbeat IPC: 3.362 cumulative IPC: 3.362 (Simulation time: 00 hr 27 min 33 sec)
Heartbeat CPU 0 instructions: 70000004 cycles: 18582776 heartbeat IPC: 3.256 cumulative IPC: 3.308 (Simulation time: 00 hr 32 min 45 sec)
Heartbeat CPU 0 instructions: 80000001 cycles: 21631590 heartbeat IPC: 3.28 cumulative IPC: 3.299 (Simulation time: 00 hr 37 min 46 sec)
Heartbeat CPU 0 instructions: 90000001 cycles: 24575479 heartbeat IPC: 3.397 cumulative IPC: 3.323 (Simulation time: 00 hr 42 min 34 sec)
Heartbeat CPU 0 instructions: 100000000 cycles: 27486175 heartbeat IPC: 3.436 cumulative IPC: 3.345 (Simulation time: 00 hr 47 min 07 sec)
Heartbeat CPU 0 instructions: 110000000 cycles: 30431798 heartbeat IPC: 3.395 cumulative IPC: 3.353 (Simulation time: 00 hr 51 min 23 sec)
Heartbeat CPU 0 instructions: 120000001 cycles: 33405664 heartbeat IPC: 3.363 cumulative IPC: 3.354 (Simulation time: 00 hr 55 min 31 sec)
Heartbeat CPU 0 instructions: 130000001 cycles: 36261709 heartbeat IPC: 3.501 cumulative IPC: 3.372 (Simulation time: 00 hr 59 min 32 sec)
Heartbeat CPU 0 instructions: 140000001 cycles: 39301059 heartbeat IPC: 3.29 cumulative IPC: 3.363 (Simulation time: 01 hr 03 min 37 sec)
Heartbeat CPU 0 instructions: 150000001 cycles: 42311770 heartbeat IPC: 3.321 cumulative IPC: 3.359 (Simulation time: 01 hr 07 min 41 sec)
Heartbeat CPU 0 instructions: 160000004 cycles: 45322888 heartbeat IPC: 3.321 cumulative IPC: 3.355 (Simulation time: 01 hr 11 min 46 sec)
Heartbeat CPU 0 instructions: 170000004 cycles: 52765487 heartbeat IPC: 1.344 cumulative IPC: 2.983 (Simulation time: 01 hr 18 min 21 sec)
Heartbeat CPU 0 instructions: 180000004 cycles: 60950810 heartbeat IPC: 1.222 cumulative IPC: 2.685 (Simulation time: 01 hr 25 min 19 sec)
Heartbeat CPU 0 instructions: 190000001 cycles: 68937668 heartbeat IPC: 1.252 cumulative IPC: 2.482 (Simulation time: 01 hr 32 min 16 sec)
Heartbeat CPU 0 instructions: 200000004 cycles: 71899308 heartbeat IPC: 3.377 cumulative IPC: 2.527 (Simulation time: 01 hr 36 min 17 sec)
Heartbeat CPU 0 instructions: 210000001 cycles: 74856434 heartbeat IPC: 3.382 cumulative IPC: 2.567 (Simulation time: 01 hr 40 min 21 sec)
Heartbeat CPU 0 instructions: 220000000 cycles: 77749186 heartbeat IPC: 3.457 cumulative IPC: 2.607 (Simulation time: 01 hr 44 min 21 sec)
Heartbeat CPU 0 instructions: 230000002 cycles: 80763549 heartbeat IPC: 3.317 cumulative IPC: 2.638 (Simulation time: 01 hr 48 min 31 sec)
Heartbeat CPU 0 instructions: 240000003 cycles: 83794269 heartbeat IPC: 3.3 cumulative IPC: 2.666 (Simulation time: 01 hr 52 min 35 sec)
Heartbeat CPU 0 instructions: 250000000 cycles: 86818975 heartbeat IPC: 3.306 cumulative IPC: 2.692 (Simulation time: 01 hr 56 min 40 sec)
Heartbeat CPU 0 instructions: 260000002 cycles: 89786965 heartbeat IPC: 3.369 cumulative IPC: 2.718 (Simulation time: 02 hr 00 min 42 sec)
Heartbeat CPU 0 instructions: 270000002 cycles: 92696830 heartbeat IPC: 3.437 cumulative IPC: 2.745 (Simulation time: 02 hr 04 min 40 sec)
Heartbeat CPU 0 instructions: 280000002 cycles: 95582110 heartbeat IPC: 3.466 cumulative IPC: 2.77 (Simulation time: 02 hr 08 min 36 sec)
Heartbeat CPU 0 instructions: 290000002 cycles: 98540679 heartbeat IPC: 3.38 cumulative IPC: 2.791 (Simulation time: 02 hr 12 min 39 sec)
Heartbeat CPU 0 instructions: 300000003 cycles: 101433490 heartbeat IPC: 3.457 cumulative IPC: 2.812 (Simulation time: 02 hr 16 min 47 sec)
Heartbeat CPU 0 instructions: 310000001 cycles: 104462404 heartbeat IPC: 3.302 cumulative IPC: 2.828 (Simulation time: 02 hr 20 min 53 sec)
Heartbeat CPU 0 instructions: 320000003 cycles: 107473820 heartbeat IPC: 3.321 cumulative IPC: 2.844 (Simulation time: 02 hr 24 min 59 sec)
Heartbeat CPU 0 instructions: 330000003 cycles: 110461033 heartbeat IPC: 3.348 cumulative IPC: 2.859 (Simulation time: 02 hr 29 min 08 sec)
Heartbeat CPU 0 instructions: 340000000 cycles: 118047733 heartbeat IPC: 1.318 cumulative IPC: 2.749 (Simulation time: 02 hr 35 min 52 sec)
Heartbeat CPU 0 instructions: 350000000 cycles: 126505738 heartbeat IPC: 1.182 cumulative IPC: 2.632 (Simulation time: 02 hr 43 min 10 sec)
Heartbeat CPU 0 instructions: 360000004 cycles: 134511818 heartbeat IPC: 1.249 cumulative IPC: 2.542 (Simulation time: 02 hr 50 min 10 sec)
Heartbeat CPU 0 instructions: 370000000 cycles: 137480887 heartbeat IPC: 3.368 cumulative IPC: 2.561 (Simulation time: 02 hr 54 min 13 sec)
Heartbeat CPU 0 instructions: 380000003 cycles: 140401653 heartbeat IPC: 3.424 cumulative IPC: 2.581 (Simulation time: 02 hr 58 min 20 sec)
Heartbeat CPU 0 instructions: 390000002 cycles: 143379182 heartbeat IPC: 3.358 cumulative IPC: 2.599 (Simulation time: 03 hr 02 min 27 sec)
Heartbeat CPU 0 instructions: 400000004 cycles: 146281944 heartbeat IPC: 3.445 cumulative IPC: 2.617 (Simulation time: 03 hr 06 min 27 sec)
Heartbeat CPU 0 instructions: 410000002 cycles: 149221892 heartbeat IPC: 3.401 cumulative IPC: 2.634 (Simulation time: 03 hr 10 min 31 sec)
Heartbeat CPU 0 instructions: 420000003 cycles: 152319335 heartbeat IPC: 3.228 cumulative IPC: 2.647 (Simulation time: 03 hr 14 min 38 sec)
Heartbeat CPU 0 instructions: 430000001 cycles: 155328849 heartbeat IPC: 3.323 cumulative IPC: 2.661 (Simulation time: 03 hr 18 min 46 sec)
Heartbeat CPU 0 instructions: 440000004 cycles: 158459975 heartbeat IPC: 3.194 cumulative IPC: 2.673 (Simulation time: 03 hr 22 min 59 sec)
Heartbeat CPU 0 instructions: 450000002 cycles: 161384822 heartbeat IPC: 3.419 cumulative IPC: 2.687 (Simulation time: 03 hr 27 min 03 sec)
Heartbeat CPU 0 instructions: 460000000 cycles: 164314844 heartbeat IPC: 3.413 cumulative IPC: 2.701 (Simulation time: 03 hr 31 min 06 sec)
Heartbeat CPU 0 instructions: 470000001 cycles: 167167453 heartbeat IPC: 3.506 cumulative IPC: 2.716 (Simulation time: 03 hr 35 min 07 sec)
Heartbeat CPU 0 instructions: 480000003 cycles: 170214194 heartbeat IPC: 3.282 cumulative IPC: 2.727 (Simulation time: 03 hr 39 min 15 sec)
Heartbeat CPU 0 instructions: 490000004 cycles: 173042925 heartbeat IPC: 3.535 cumulative IPC: 2.741 (Simulation time: 03 hr 43 min 12 sec)
Heartbeat CPU 0 instructions: 500000004 cycles: 176028393 heartbeat IPC: 3.35 cumulative IPC: 2.752 (Simulation time: 03 hr 47 min 26 sec)
Heartbeat CPU 0 instructions: 510000003 cycles: 179038658 heartbeat IPC: 3.322 cumulative IPC: 2.763 (Simulation time: 03 hr 51 min 38 sec)
Heartbeat CPU 0 instructions: 520000001 cycles: 181919321 heartbeat IPC: 3.471 cumulative IPC: 2.775 (Simulation time: 03 hr 55 min 48 sec)
Heartbeat CPU 0 instructions: 530000001 cycles: 184914434 heartbeat IPC: 3.339 cumulative IPC: 2.785 (Simulation time: 03 hr 59 min 50 sec)
Heartbeat CPU 0 instructions: 540000000 cycles: 187869735 heartbeat IPC: 3.384 cumulative IPC: 2.795 (Simulation time: 04 hr 03 min 53 sec)
Heartbeat CPU 0 instructions: 550000001 cycles: 190850764 heartbeat IPC: 3.355 cumulative IPC: 2.804 (Simulation time: 04 hr 07 min 57 sec)
Heartbeat CPU 0 instructions: 560000000 cycles: 193929733 heartbeat IPC: 3.248 cumulative IPC: 2.812 (Simulation time: 04 hr 12 min 08 sec)
Heartbeat CPU 0 instructions: 570000004 cycles: 199081461 heartbeat IPC: 1.941 cumulative IPC: 2.788 (Simulation time: 04 hr 17 min 30 sec)
Heartbeat CPU 0 instructions: 580000003 cycles: 207878752 heartbeat IPC: 1.137 cumulative IPC: 2.713 (Simulation time: 04 hr 24 min 56 sec)
Heartbeat CPU 0 instructions: 590000002 cycles: 218171366 heartbeat IPC: 0.9716 cumulative IPC: 2.626 (Simulation time: 04 hr 33 min 13 sec)
Heartbeat CPU 0 instructions: 600000004 cycles: 221221035 heartbeat IPC: 3.279 cumulative IPC: 2.636 (Simulation time: 04 hr 37 min 17 sec)
Heartbeat CPU 0 instructions: 610000002 cycles: 224187582 heartbeat IPC: 3.371 cumulative IPC: 2.646 (Simulation time: 04 hr 40 min 59 sec)
Heartbeat CPU 0 instructions: 620000001 cycles: 226960858 heartbeat IPC: 3.606 cumulative IPC: 2.658 (Simulation time: 04 hr 44 min 34 sec)
Heartbeat CPU 0 instructions: 630000002 cycles: 229929919 heartbeat IPC: 3.368 cumulative IPC: 2.668 (Simulation time: 04 hr 48 min 06 sec)
Heartbeat CPU 0 instructions: 640000004 cycles: 232880079 heartbeat IPC: 3.39 cumulative IPC: 2.678 (Simulation time: 04 hr 51 min 35 sec)
Heartbeat CPU 0 instructions: 650000000 cycles: 235630701 heartbeat IPC: 3.636 cumulative IPC: 2.689 (Simulation time: 04 hr 54 min 34 sec)
Simulation finished CPU 0 instructions: 600000001 cycles: 223093597 cumulative IPC: 2.689 (Simulation time: 04 hr 54 min 34 sec)
Simulation complete CPU 0 instructions: 600000001 cycles: 223093597 cumulative IPC: 2.689 (Simulation time: 04 hr 54 min 34 sec)

ChampSim completed all CPUs

=== Simulation ===
CPU 0 runs traces/400.perlbench-41B.champsimtrace.xz
Region of Interest Statistics

CPU 0 cumulative IPC: 2.689 instructions: 600000001 cycles: 223093597
CPU 0 Branch Prediction Accuracy: 99.19% MPKI: 1.684 Average ROB Occupancy at Mispredict: 101.9
Branch type MPKI
BRANCH_DIRECT_JUMP: 0.0123
BRANCH_INDIRECT: 0.323
BRANCH_CONDITIONAL: 1.14
BRANCH_DIRECT_CALL: 0.0043
BRANCH_INDIRECT_CALL: 0.2
BRANCH_RETURN: 0.00828

LLC TOTAL        ACCESS:     414452 HIT:     157440 MISS:     257012
LLC LOAD         ACCESS:     309590 HIT:      77805 MISS:     231785
LLC RFO          ACCESS:      25106 HIT:      10180 MISS:      14926
LLC PREFETCH     ACCESS:          0 HIT:          0 MISS:          0
LLC WRITE        ACCESS:      63925 HIT:      63396 MISS:        529
LLC TRANSLATION  ACCESS:      15831 HIT:       6059 MISS:       9772
LLC PREFETCH REQUESTED:          0 ISSUED:          0 USEFUL:          0 USELESS:          0
LLC AVERAGE MISS LATENCY: 631.6 cycles
cpu0_DTLB TOTAL        ACCESS:  129742773 HIT:  129040412 MISS:     702361
cpu0_DTLB LOAD         ACCESS:  129742773 HIT:  129040412 MISS:     702361
cpu0_DTLB RFO          ACCESS:          0 HIT:          0 MISS:          0
cpu0_DTLB PREFETCH     ACCESS:          0 HIT:          0 MISS:          0
cpu0_DTLB WRITE        ACCESS:          0 HIT:          0 MISS:          0
cpu0_DTLB TRANSLATION  ACCESS:          0 HIT:          0 MISS:          0
cpu0_DTLB PREFETCH REQUESTED:          0 ISSUED:          0 USEFUL:          0 USELESS:          0
cpu0_DTLB AVERAGE MISS LATENCY: 15.08 cycles
cpu0_ITLB TOTAL        ACCESS:    4876770 HIT:    4814091 MISS:      62679
cpu0_ITLB LOAD         ACCESS:    4876770 HIT:    4814091 MISS:      62679
cpu0_ITLB RFO          ACCESS:          0 HIT:          0 MISS:          0
cpu0_ITLB PREFETCH     ACCESS:          0 HIT:          0 MISS:          0
cpu0_ITLB WRITE        ACCESS:          0 HIT:          0 MISS:          0
cpu0_ITLB TRANSLATION  ACCESS:          0 HIT:          0 MISS:          0
cpu0_ITLB PREFETCH REQUESTED:          0 ISSUED:          0 USEFUL:          0 USELESS:          0
cpu0_ITLB AVERAGE MISS LATENCY: 6.734 cycles
cpu0_L1D TOTAL        ACCESS:  174344686 HIT:  172938443 MISS:    1406243
cpu0_L1D LOAD         ACCESS:   91324509 HIT:   90238872 MISS:    1085637
cpu0_L1D RFO          ACCESS:          0 HIT:          0 MISS:          0
cpu0_L1D PREFETCH     ACCESS:          0 HIT:          0 MISS:          0
cpu0_L1D WRITE        ACCESS:   82995712 HIT:   82697971 MISS:     297741
cpu0_L1D TRANSLATION  ACCESS:      24465 HIT:       1600 MISS:      22865
cpu0_L1D PREFETCH REQUESTED:          0 ISSUED:          0 USEFUL:          0 USELESS:          0
cpu0_L1D AVERAGE MISS LATENCY: 113.1 cycles
cpu0_L1I TOTAL        ACCESS:    5655654 HIT:    4849461 MISS:     806193
cpu0_L1I LOAD         ACCESS:    5655654 HIT:    4849461 MISS:     806193
cpu0_L1I RFO          ACCESS:          0 HIT:          0 MISS:          0
cpu0_L1I PREFETCH     ACCESS:          0 HIT:          0 MISS:          0
cpu0_L1I WRITE        ACCESS:          0 HIT:          0 MISS:          0
cpu0_L1I TRANSLATION  ACCESS:          0 HIT:          0 MISS:          0
cpu0_L1I PREFETCH REQUESTED:          0 ISSUED:          0 USEFUL:          0 USELESS:          0
cpu0_L1I AVERAGE MISS LATENCY: 10.74 cycles
cpu0_L2C TOTAL        ACCESS:    1381614 HIT:    1030209 MISS:     351405
cpu0_L2C LOAD         ACCESS:    1124064 HIT:     814474 MISS:     309590
cpu0_L2C RFO          ACCESS:      64498 HIT:      39392 MISS:      25106
cpu0_L2C PREFETCH     ACCESS:          0 HIT:          0 MISS:          0
cpu0_L2C WRITE        ACCESS:     170266 HIT:     169388 MISS:        878
cpu0_L2C TRANSLATION  ACCESS:      22786 HIT:       6955 MISS:      15831
cpu0_L2C PREFETCH REQUESTED:          0 ISSUED:          0 USEFUL:          0 USELESS:          0
cpu0_L2C AVERAGE MISS LATENCY: 482.6 cycles
cpu0_STLB TOTAL        ACCESS:     508995 HIT:     486206 MISS:      22789
cpu0_STLB LOAD         ACCESS:     508995 HIT:     486206 MISS:      22789
cpu0_STLB RFO          ACCESS:          0 HIT:          0 MISS:          0
cpu0_STLB PREFETCH     ACCESS:          0 HIT:          0 MISS:          0
cpu0_STLB WRITE        ACCESS:          0 HIT:          0 MISS:          0
cpu0_STLB TRANSLATION  ACCESS:          0 HIT:          0 MISS:          0
cpu0_STLB PREFETCH REQUESTED:          0 ISSUED:          0 USEFUL:          0 USELESS:          0
cpu0_STLB AVERAGE MISS LATENCY: 359 cycles

DRAM Statistics

Channel 0 RQ ROW_BUFFER_HIT:      48526
  ROW_BUFFER_MISS:     207923
 AVG DBUS CONGESTED CYCLE: 3.835
WQ ROW_BUFFER_HIT: Channel 0 
  ROW_BUFFER_MISS:       5159
  FULL:      32696
