WARNING: physical memory size is smaller than virtual memory size.

*** ChampSim Multicore Out-of-Order Simulator ***
Warmup Instructions: 50000000
Simulation Instructions: 600000000
Number of CPUs: 1
Page size: 4096

CPU 0 Tage branch predictor
Off-chip DRAM Size: 4 GiB Channels: 1 Width: 64-bit Data Race: 3200 MT/s
Heartbeat CPU 0 instructions: 10000000 cycles: 2500062 heartbeat IPC: 4 cumulative IPC: 4 (Simulation time: 00 hr 04 min 11 sec)
Heartbeat CPU 0 instructions: 20000000 cycles: 5000062 heartbeat IPC: 4 cumulative IPC: 4 (Simulation time: 00 hr 08 min 20 sec)
Heartbeat CPU 0 instructions: 30000000 cycles: 7500062 heartbeat IPC: 4 cumulative IPC: 4 (Simulation time: 00 hr 12 min 29 sec)
Heartbeat CPU 0 instructions: 40000000 cycles: 10000062 heartbeat IPC: 4 cumulative IPC: 4 (Simulation time: 00 hr 16 min 36 sec)
Heartbeat CPU 0 instructions: 50000000 cycles: 12500062 heartbeat IPC: 4 cumulative IPC: 4 (Simulation time: 00 hr 20 min 56 sec)
Warmup finished CPU 0 instructions: 50000000 cycles: 12500063 cumulative IPC: 4 (Simulation time: 00 hr 20 min 56 sec)
Warmup complete CPU 0 instructions: 50000000 cycles: 12500063 cumulative IPC: 4 (Simulation time: 00 hr 20 min 56 sec)
Heartbeat CPU 0 instructions: 60000004 cycles: 15548215 heartbeat IPC: 3.281 cumulative IPC: 3.281 (Simulation time: 00 hr 25 min 58 sec)
Heartbeat CPU 0 instructions: 70000003 cycles: 18498727 heartbeat IPC: 3.389 cumulative IPC: 3.334 (Simulation time: 00 hr 30 min 54 sec)
Heartbeat CPU 0 instructions: 80000002 cycles: 21585705 heartbeat IPC: 3.239 cumulative IPC: 3.302 (Simulation time: 00 hr 35 min 56 sec)
Heartbeat CPU 0 instructions: 90000000 cycles: 24341211 heartbeat IPC: 3.629 cumulative IPC: 3.378 (Simulation time: 00 hr 40 min 44 sec)
Heartbeat CPU 0 instructions: 100000003 cycles: 27160000 heartbeat IPC: 3.548 cumulative IPC: 3.411 (Simulation time: 00 hr 45 min 40 sec)
Heartbeat CPU 0 instructions: 110000001 cycles: 30114425 heartbeat IPC: 3.385 cumulative IPC: 3.406 (Simulation time: 00 hr 50 min 45 sec)
Heartbeat CPU 0 instructions: 120000001 cycles: 32858964 heartbeat IPC: 3.644 cumulative IPC: 3.438 (Simulation time: 00 hr 55 min 34 sec)
Heartbeat CPU 0 instructions: 130000003 cycles: 35831076 heartbeat IPC: 3.365 cumulative IPC: 3.429 (Simulation time: 01 hr 00 min 30 sec)
Heartbeat CPU 0 instructions: 140000002 cycles: 38697877 heartbeat IPC: 3.488 cumulative IPC: 3.435 (Simulation time: 01 hr 05 min 25 sec)
Heartbeat CPU 0 instructions: 150000001 cycles: 41511916 heartbeat IPC: 3.554 cumulative IPC: 3.447 (Simulation time: 01 hr 10 min 15 sec)
Heartbeat CPU 0 instructions: 160000000 cycles: 44469904 heartbeat IPC: 3.381 cumulative IPC: 3.441 (Simulation time: 01 hr 15 min 11 sec)
Heartbeat CPU 0 instructions: 170000001 cycles: 47447265 heartbeat IPC: 3.359 cumulative IPC: 3.434 (Simulation time: 01 hr 20 min 10 sec)
Heartbeat CPU 0 instructions: 180000000 cycles: 50287265 heartbeat IPC: 3.521 cumulative IPC: 3.44 (Simulation time: 01 hr 25 min 05 sec)
Heartbeat CPU 0 instructions: 190000002 cycles: 53039646 heartbeat IPC: 3.633 cumulative IPC: 3.453 (Simulation time: 01 hr 30 min 02 sec)
Heartbeat CPU 0 instructions: 200000002 cycles: 55926157 heartbeat IPC: 3.464 cumulative IPC: 3.454 (Simulation time: 01 hr 34 min 57 sec)
Heartbeat CPU 0 instructions: 210000000 cycles: 58849769 heartbeat IPC: 3.42 cumulative IPC: 3.452 (Simulation time: 01 hr 39 min 51 sec)
Heartbeat CPU 0 instructions: 220000001 cycles: 61658823 heartbeat IPC: 3.56 cumulative IPC: 3.458 (Simulation time: 01 hr 44 min 41 sec)
Heartbeat CPU 0 instructions: 230000002 cycles: 64608254 heartbeat IPC: 3.39 cumulative IPC: 3.454 (Simulation time: 01 hr 49 min 37 sec)
Heartbeat CPU 0 instructions: 240000004 cycles: 67623057 heartbeat IPC: 3.317 cumulative IPC: 3.447 (Simulation time: 01 hr 54 min 35 sec)
Heartbeat CPU 0 instructions: 250000003 cycles: 70619229 heartbeat IPC: 3.338 cumulative IPC: 3.441 (Simulation time: 01 hr 59 min 46 sec)
Heartbeat CPU 0 instructions: 260000001 cycles: 73462015 heartbeat IPC: 3.518 cumulative IPC: 3.445 (Simulation time: 02 hr 04 min 38 sec)
Heartbeat CPU 0 instructions: 270000002 cycles: 79404098 heartbeat IPC: 1.683 cumulative IPC: 3.288 (Simulation time: 02 hr 11 min 40 sec)
Heartbeat CPU 0 instructions: 280000000 cycles: 90208178 heartbeat IPC: 0.9256 cumulative IPC: 2.96 (Simulation time: 02 hr 22 min 11 sec)
Heartbeat CPU 0 instructions: 290000000 cycles: 99741388 heartbeat IPC: 1.049 cumulative IPC: 2.751 (Simulation time: 02 hr 31 min 50 sec)
Heartbeat CPU 0 instructions: 300000003 cycles: 105395797 heartbeat IPC: 1.769 cumulative IPC: 2.691 (Simulation time: 02 hr 39 min 02 sec)
Heartbeat CPU 0 instructions: 310000001 cycles: 114487052 heartbeat IPC: 1.1 cumulative IPC: 2.549 (Simulation time: 02 hr 48 min 55 sec)
Heartbeat CPU 0 instructions: 320000004 cycles: 118540033 heartbeat IPC: 2.467 cumulative IPC: 2.546 (Simulation time: 02 hr 54 min 51 sec)
Heartbeat CPU 0 instructions: 330000000 cycles: 121764572 heartbeat IPC: 3.101 cumulative IPC: 2.563 (Simulation time: 03 hr 00 min 10 sec)
Heartbeat CPU 0 instructions: 340000001 cycles: 125051096 heartbeat IPC: 3.043 cumulative IPC: 2.577 (Simulation time: 03 hr 05 min 28 sec)
Heartbeat CPU 0 instructions: 350000000 cycles: 128504364 heartbeat IPC: 2.896 cumulative IPC: 2.586 (Simulation time: 03 hr 10 min 52 sec)
Heartbeat CPU 0 instructions: 360000004 cycles: 131703655 heartbeat IPC: 3.126 cumulative IPC: 2.601 (Simulation time: 03 hr 16 min 23 sec)
Heartbeat CPU 0 instructions: 370000001 cycles: 134784951 heartbeat IPC: 3.245 cumulative IPC: 2.617 (Simulation time: 03 hr 21 min 35 sec)
Heartbeat CPU 0 instructions: 380000004 cycles: 137892238 heartbeat IPC: 3.218 cumulative IPC: 2.632 (Simulation time: 03 hr 26 min 48 sec)
Heartbeat CPU 0 instructions: 390000002 cycles: 141215303 heartbeat IPC: 3.009 cumulative IPC: 2.641 (Simulation time: 03 hr 32 min 08 sec)
Heartbeat CPU 0 instructions: 400000000 cycles: 144606217 heartbeat IPC: 2.949 cumulative IPC: 2.649 (Simulation time: 03 hr 37 min 28 sec)
Heartbeat CPU 0 instructions: 410000000 cycles: 151245726 heartbeat IPC: 1.506 cumulative IPC: 2.595 (Simulation time: 03 hr 45 min 06 sec)
Heartbeat CPU 0 instructions: 420000003 cycles: 160990035 heartbeat IPC: 1.026 cumulative IPC: 2.492 (Simulation time: 03 hr 54 min 55 sec)
Heartbeat CPU 0 instructions: 430000004 cycles: 166629567 heartbeat IPC: 1.773 cumulative IPC: 2.465 (Simulation time: 04 hr 02 min 13 sec)
Heartbeat CPU 0 instructions: 440000004 cycles: 172820725 heartbeat IPC: 1.615 cumulative IPC: 2.433 (Simulation time: 04 hr 09 min 43 sec)
Heartbeat CPU 0 instructions: 450000000 cycles: 178385265 heartbeat IPC: 1.797 cumulative IPC: 2.411 (Simulation time: 04 hr 17 min 01 sec)
Heartbeat CPU 0 instructions: 460000002 cycles: 189097061 heartbeat IPC: 0.9336 cumulative IPC: 2.322 (Simulation time: 04 hr 27 min 39 sec)
Heartbeat CPU 0 instructions: 470000003 cycles: 197260144 heartbeat IPC: 1.225 cumulative IPC: 2.273 (Simulation time: 04 hr 36 min 30 sec)
Heartbeat CPU 0 instructions: 480000000 cycles: 200788849 heartbeat IPC: 2.834 cumulative IPC: 2.284 (Simulation time: 04 hr 41 min 56 sec)
Heartbeat CPU 0 instructions: 490000001 cycles: 204544718 heartbeat IPC: 2.662 cumulative IPC: 2.291 (Simulation time: 04 hr 47 min 33 sec)
Heartbeat CPU 0 instructions: 500000002 cycles: 208092075 heartbeat IPC: 2.819 cumulative IPC: 2.301 (Simulation time: 04 hr 53 min 13 sec)
Heartbeat CPU 0 instructions: 510000000 cycles: 211517301 heartbeat IPC: 2.92 cumulative IPC: 2.311 (Simulation time: 04 hr 58 min 37 sec)
Heartbeat CPU 0 instructions: 520000000 cycles: 215084812 heartbeat IPC: 2.803 cumulative IPC: 2.32 (Simulation time: 05 hr 04 min 12 sec)
Heartbeat CPU 0 instructions: 530000001 cycles: 225077721 heartbeat IPC: 1.001 cumulative IPC: 2.258 (Simulation time: 05 hr 14 min 16 sec)
Heartbeat CPU 0 instructions: 540000000 cycles: 234876142 heartbeat IPC: 1.021 cumulative IPC: 2.203 (Simulation time: 05 hr 24 min 13 sec)
Heartbeat CPU 0 instructions: 550000004 cycles: 246346678 heartbeat IPC: 0.8718 cumulative IPC: 2.138 (Simulation time: 05 hr 35 min 23 sec)
Heartbeat CPU 0 instructions: 560000004 cycles: 250227706 heartbeat IPC: 2.577 cumulative IPC: 2.145 (Simulation time: 05 hr 40 min 55 sec)
Heartbeat CPU 0 instructions: 570000002 cycles: 253055479 heartbeat IPC: 3.536 cumulative IPC: 2.162 (Simulation time: 05 hr 46 min 05 sec)
Heartbeat CPU 0 instructions: 580000000 cycles: 255993779 heartbeat IPC: 3.403 cumulative IPC: 2.177 (Simulation time: 05 hr 50 min 59 sec)
Heartbeat CPU 0 instructions: 590000001 cycles: 258925123 heartbeat IPC: 3.411 cumulative IPC: 2.191 (Simulation time: 05 hr 55 min 55 sec)
Heartbeat CPU 0 instructions: 600000003 cycles: 261625567 heartbeat IPC: 3.703 cumulative IPC: 2.208 (Simulation time: 06 hr 00 min 53 sec)
Heartbeat CPU 0 instructions: 610000001 cycles: 264495143 heartbeat IPC: 3.485 cumulative IPC: 2.222 (Simulation time: 06 hr 05 min 53 sec)
Heartbeat CPU 0 instructions: 620000004 cycles: 267454391 heartbeat IPC: 3.379 cumulative IPC: 2.236 (Simulation time: 06 hr 10 min 50 sec)
Heartbeat CPU 0 instructions: 630000002 cycles: 270270635 heartbeat IPC: 3.551 cumulative IPC: 2.25 (Simulation time: 06 hr 15 min 44 sec)
Heartbeat CPU 0 instructions: 640000004 cycles: 273316793 heartbeat IPC: 3.283 cumulative IPC: 2.262 (Simulation time: 06 hr 20 min 47 sec)
Heartbeat CPU 0 instructions: 650000001 cycles: 276028406 heartbeat IPC: 3.688 cumulative IPC: 2.277 (Simulation time: 06 hr 25 min 36 sec)
Simulation finished CPU 0 instructions: 600000001 cycles: 263528344 cumulative IPC: 2.277 (Simulation time: 06 hr 25 min 36 sec)
Simulation complete CPU 0 instructions: 600000001 cycles: 263528344 cumulative IPC: 2.277 (Simulation time: 06 hr 25 min 36 sec)

ChampSim completed all CPUs

=== Simulation ===
CPU 0 runs traces/400.perlbench-50B.champsimtrace.xz
Region of Interest Statistics

CPU 0 cumulative IPC: 2.277 instructions: 600000001 cycles: 263528344
CPU 0 Branch Prediction Accuracy: 99.01% MPKI: 2.04 Average ROB Occupancy at Mispredict: 94.7
Branch type MPKI
BRANCH_DIRECT_JUMP: 0.0176
BRANCH_INDIRECT: 0.38
BRANCH_CONDITIONAL: 1.19
BRANCH_DIRECT_CALL: 0.0067
BRANCH_INDIRECT_CALL: 0.431
BRANCH_RETURN: 0.0161

LLC TOTAL        ACCESS:     838323 HIT:     244436 MISS:     593887
LLC LOAD         ACCESS:     377581 HIT:     129836 MISS:     247745
LLC RFO          ACCESS:      32613 HIT:       8233 MISS:      24380
LLC PREFETCH     ACCESS:     326264 HIT:      80785 MISS:     245479
LLC WRITE        ACCESS:      83595 HIT:      25029 MISS:      58566
LLC TRANSLATION  ACCESS:      18270 HIT:        553 MISS:      17717
LLC PREFETCH REQUESTED:     326398 ISSUED:     326264 USEFUL:      50645 USELESS:     169037
LLC AVERAGE MISS LATENCY: 714.2 cycles
cpu0_DTLB TOTAL        ACCESS:  133143918 HIT:  131792703 MISS:    1351215
cpu0_DTLB LOAD         ACCESS:  133143918 HIT:  131792703 MISS:    1351215
cpu0_DTLB RFO          ACCESS:          0 HIT:          0 MISS:          0
cpu0_DTLB PREFETCH     ACCESS:          0 HIT:          0 MISS:          0
cpu0_DTLB WRITE        ACCESS:          0 HIT:          0 MISS:          0
cpu0_DTLB TRANSLATION  ACCESS:          0 HIT:          0 MISS:          0
cpu0_DTLB PREFETCH REQUESTED:          0 ISSUED:          0 USEFUL:          0 USELESS:          0
cpu0_DTLB AVERAGE MISS LATENCY: 16.38 cycles
cpu0_ITLB TOTAL        ACCESS:    8996069 HIT:    8785768 MISS:     210301
cpu0_ITLB LOAD         ACCESS:    8996069 HIT:    8785768 MISS:     210301
cpu0_ITLB RFO          ACCESS:          0 HIT:          0 MISS:          0
cpu0_ITLB PREFETCH     ACCESS:          0 HIT:          0 MISS:          0
cpu0_ITLB WRITE        ACCESS:          0 HIT:          0 MISS:          0
cpu0_ITLB TRANSLATION  ACCESS:          0 HIT:          0 MISS:          0
cpu0_ITLB PREFETCH REQUESTED:          0 ISSUED:          0 USEFUL:          0 USELESS:          0
cpu0_ITLB AVERAGE MISS LATENCY: 3.757 cycles
cpu0_L1D TOTAL        ACCESS:  178214317 HIT:  175286779 MISS:    2927538
cpu0_L1D LOAD         ACCESS:   92695034 HIT:   90297793 MISS:    2397241
cpu0_L1D RFO          ACCESS:          0 HIT:          0 MISS:          0
cpu0_L1D PREFETCH     ACCESS:          0 HIT:          0 MISS:          0
cpu0_L1D WRITE        ACCESS:   85490753 HIT:   84986981 MISS:     503772
cpu0_L1D TRANSLATION  ACCESS:      28530 HIT:       2005 MISS:      26525
cpu0_L1D PREFETCH REQUESTED:          0 ISSUED:          0 USEFUL:          0 USELESS:          0
cpu0_L1D AVERAGE MISS LATENCY: 71.84 cycles
cpu0_L1I TOTAL        ACCESS:   10515018 HIT:    8614212 MISS:    1900806
cpu0_L1I LOAD         ACCESS:   10515018 HIT:    8614212 MISS:    1900806
cpu0_L1I RFO          ACCESS:          0 HIT:          0 MISS:          0
cpu0_L1I PREFETCH     ACCESS:          0 HIT:          0 MISS:          0
cpu0_L1I WRITE        ACCESS:          0 HIT:          0 MISS:          0
cpu0_L1I TRANSLATION  ACCESS:          0 HIT:          0 MISS:          0
cpu0_L1I PREFETCH REQUESTED:          0 ISSUED:          0 USEFUL:          0 USELESS:          0
cpu0_L1I AVERAGE MISS LATENCY: 15.43 cycles
cpu0_L2C TOTAL        ACCESS:    3235997 HIT:    2806566 MISS:     429431
cpu0_L2C LOAD         ACCESS:    2709155 HIT:    2331574 MISS:     377581
cpu0_L2C RFO          ACCESS:     135550 HIT:     102937 MISS:      32613
cpu0_L2C PREFETCH     ACCESS:          0 HIT:          0 MISS:          0
cpu0_L2C WRITE        ACCESS:     364852 HIT:     363885 MISS:        967
cpu0_L2C TRANSLATION  ACCESS:      26440 HIT:       8170 MISS:      18270
cpu0_L2C PREFETCH REQUESTED:          0 ISSUED:          0 USEFUL:          0 USELESS:          0
cpu0_L2C AVERAGE MISS LATENCY: 520.6 cycles
cpu0_STLB TOTAL        ACCESS:    1010096 HIT:     983409 MISS:      26687
cpu0_STLB LOAD         ACCESS:    1010096 HIT:     983409 MISS:      26687
cpu0_STLB RFO          ACCESS:          0 HIT:          0 MISS:          0
cpu0_STLB PREFETCH     ACCESS:          0 HIT:          0 MISS:          0
cpu0_STLB WRITE        ACCESS:          0 HIT:          0 MISS:          0
cpu0_STLB TRANSLATION  ACCESS:          0 HIT:          0 MISS:          0
cpu0_STLB PREFETCH REQUESTED:          0 ISSUED:          0 USEFUL:          0 USELESS:          0
cpu0_STLB AVERAGE MISS LATENCY: 646.2 cycles

DRAM Statistics

Channel 0 RQ ROW_BUFFER_HIT:     165669
  ROW_BUFFER_MISS:     352965
 AVG DBUS CONGESTED CYCLE: 3.909
WQ ROW_BUFFER_HIT: Channel 0 
  ROW_BUFFER_MISS:       6027
  FULL:      53179
