WARNING: physical memory size is smaller than virtual memory size.

*** ChampSim Multicore Out-of-Order Simulator ***
Warmup Instructions: 50000000
Simulation Instructions: 600000000
Number of CPUs: 1
Page size: 4096

Initialize SIGNATURE TABLE
ST_SET: 1
ST_WAY: 256
ST_TAG_BIT: 16
ST_TAG_MASK: ffff

Initialize PATTERN TABLE
PT_SET: 512
PT_WAY: 4
SIG_DELTA_BIT: 7
C_SIG_BIT: 4
C_DELTA_BIT: 4

Initialize PREFETCH FILTER
FILTER_SET: 1024
Off-chip DRAM Size: 4 GiB Channels: 1 Width: 64-bit Data Race: 3200 MT/s
Heartbeat CPU 0 instructions: 10000000 cycles: 2500061 heartbeat IPC: 4 cumulative IPC: 4 (Simulation time: 00 hr 03 min 36 sec)
Heartbeat CPU 0 instructions: 20000000 cycles: 5000061 heartbeat IPC: 4 cumulative IPC: 4 (Simulation time: 00 hr 07 min 10 sec)
Heartbeat CPU 0 instructions: 30000000 cycles: 7500061 heartbeat IPC: 4 cumulative IPC: 4 (Simulation time: 00 hr 10 min 42 sec)
Heartbeat CPU 0 instructions: 40000000 cycles: 10000061 heartbeat IPC: 4 cumulative IPC: 4 (Simulation time: 00 hr 14 min 16 sec)
Heartbeat CPU 0 instructions: 50000000 cycles: 12500061 heartbeat IPC: 4 cumulative IPC: 4 (Simulation time: 00 hr 17 min 50 sec)
Warmup finished CPU 0 instructions: 50000000 cycles: 12500062 cumulative IPC: 4 (Simulation time: 00 hr 17 min 50 sec)
Warmup complete CPU 0 instructions: 50000000 cycles: 12500062 cumulative IPC: 4 (Simulation time: 00 hr 17 min 50 sec)
Heartbeat CPU 0 instructions: 60000004 cycles: 15581194 heartbeat IPC: 3.246 cumulative IPC: 3.246 (Simulation time: 00 hr 22 min 15 sec)
Heartbeat CPU 0 instructions: 70000003 cycles: 18669214 heartbeat IPC: 3.238 cumulative IPC: 3.242 (Simulation time: 00 hr 26 min 35 sec)
Heartbeat CPU 0 instructions: 80000001 cycles: 21849654 heartbeat IPC: 3.144 cumulative IPC: 3.209 (Simulation time: 00 hr 31 min 01 sec)
Heartbeat CPU 0 instructions: 90000000 cycles: 24634404 heartbeat IPC: 3.591 cumulative IPC: 3.296 (Simulation time: 00 hr 35 min 26 sec)
Heartbeat CPU 0 instructions: 100000003 cycles: 27560415 heartbeat IPC: 3.418 cumulative IPC: 3.32 (Simulation time: 00 hr 39 min 46 sec)
Heartbeat CPU 0 instructions: 110000000 cycles: 30606632 heartbeat IPC: 3.283 cumulative IPC: 3.314 (Simulation time: 00 hr 44 min 03 sec)
Heartbeat CPU 0 instructions: 120000001 cycles: 33449504 heartbeat IPC: 3.518 cumulative IPC: 3.341 (Simulation time: 00 hr 48 min 20 sec)
Heartbeat CPU 0 instructions: 130000003 cycles: 36435136 heartbeat IPC: 3.349 cumulative IPC: 3.342 (Simulation time: 00 hr 52 min 37 sec)
Heartbeat CPU 0 instructions: 140000002 cycles: 39420846 heartbeat IPC: 3.349 cumulative IPC: 3.343 (Simulation time: 00 hr 56 min 53 sec)
Heartbeat CPU 0 instructions: 150000001 cycles: 42338684 heartbeat IPC: 3.427 cumulative IPC: 3.351 (Simulation time: 01 hr 01 min 18 sec)
Heartbeat CPU 0 instructions: 160000000 cycles: 45330006 heartbeat IPC: 3.343 cumulative IPC: 3.351 (Simulation time: 01 hr 05 min 37 sec)
Heartbeat CPU 0 instructions: 170000001 cycles: 48387826 heartbeat IPC: 3.27 cumulative IPC: 3.344 (Simulation time: 01 hr 09 min 55 sec)
Heartbeat CPU 0 instructions: 180000000 cycles: 51252733 heartbeat IPC: 3.491 cumulative IPC: 3.355 (Simulation time: 01 hr 14 min 11 sec)
Heartbeat CPU 0 instructions: 190000002 cycles: 54080618 heartbeat IPC: 3.536 cumulative IPC: 3.367 (Simulation time: 01 hr 18 min 28 sec)
Heartbeat CPU 0 instructions: 200000002 cycles: 57052007 heartbeat IPC: 3.365 cumulative IPC: 3.367 (Simulation time: 01 hr 22 min 49 sec)
Heartbeat CPU 0 instructions: 210000000 cycles: 60019944 heartbeat IPC: 3.369 cumulative IPC: 3.367 (Simulation time: 01 hr 27 min 08 sec)
Heartbeat CPU 0 instructions: 220000001 cycles: 62917734 heartbeat IPC: 3.451 cumulative IPC: 3.372 (Simulation time: 01 hr 31 min 24 sec)
Heartbeat CPU 0 instructions: 230000002 cycles: 65937243 heartbeat IPC: 3.312 cumulative IPC: 3.368 (Simulation time: 01 hr 35 min 45 sec)
Heartbeat CPU 0 instructions: 240000004 cycles: 69057395 heartbeat IPC: 3.205 cumulative IPC: 3.359 (Simulation time: 01 hr 40 min 12 sec)
Heartbeat CPU 0 instructions: 250000003 cycles: 72209672 heartbeat IPC: 3.172 cumulative IPC: 3.35 (Simulation time: 01 hr 44 min 36 sec)
Heartbeat CPU 0 instructions: 260000000 cycles: 75112898 heartbeat IPC: 3.444 cumulative IPC: 3.354 (Simulation time: 01 hr 48 min 53 sec)
Heartbeat CPU 0 instructions: 270000002 cycles: 81259879 heartbeat IPC: 1.627 cumulative IPC: 3.2 (Simulation time: 01 hr 55 min 18 sec)
Heartbeat CPU 0 instructions: 280000000 cycles: 91722096 heartbeat IPC: 0.9558 cumulative IPC: 2.903 (Simulation time: 02 hr 04 min 57 sec)
Heartbeat CPU 0 instructions: 290000000 cycles: 101407394 heartbeat IPC: 1.032 cumulative IPC: 2.699 (Simulation time: 02 hr 14 min 01 sec)
Heartbeat CPU 0 instructions: 300000003 cycles: 107136477 heartbeat IPC: 1.745 cumulative IPC: 2.642 (Simulation time: 02 hr 20 min 41 sec)
Heartbeat CPU 0 instructions: 310000004 cycles: 116615142 heartbeat IPC: 1.055 cumulative IPC: 2.497 (Simulation time: 02 hr 29 min 50 sec)
Heartbeat CPU 0 instructions: 320000004 cycles: 120703523 heartbeat IPC: 2.446 cumulative IPC: 2.495 (Simulation time: 02 hr 35 min 07 sec)
Heartbeat CPU 0 instructions: 330000000 cycles: 123988670 heartbeat IPC: 3.044 cumulative IPC: 2.511 (Simulation time: 02 hr 39 min 50 sec)
Heartbeat CPU 0 instructions: 340000001 cycles: 127224924 heartbeat IPC: 3.09 cumulative IPC: 2.528 (Simulation time: 02 hr 44 min 25 sec)
Heartbeat CPU 0 instructions: 350000000 cycles: 130609606 heartbeat IPC: 2.954 cumulative IPC: 2.54 (Simulation time: 02 hr 49 min 09 sec)
Heartbeat CPU 0 instructions: 360000003 cycles: 133688244 heartbeat IPC: 3.248 cumulative IPC: 2.558 (Simulation time: 02 hr 53 min 39 sec)
Heartbeat CPU 0 instructions: 370000001 cycles: 136655807 heartbeat IPC: 3.37 cumulative IPC: 2.577 (Simulation time: 02 hr 58 min 01 sec)
Heartbeat CPU 0 instructions: 380000004 cycles: 139601063 heartbeat IPC: 3.395 cumulative IPC: 2.596 (Simulation time: 03 hr 02 min 24 sec)
Heartbeat CPU 0 instructions: 390000002 cycles: 142673054 heartbeat IPC: 3.255 cumulative IPC: 2.612 (Simulation time: 03 hr 06 min 53 sec)
Heartbeat CPU 0 instructions: 400000000 cycles: 145769634 heartbeat IPC: 3.229 cumulative IPC: 2.626 (Simulation time: 03 hr 11 min 23 sec)
Heartbeat CPU 0 instructions: 410000000 cycles: 151517598 heartbeat IPC: 1.74 cumulative IPC: 2.59 (Simulation time: 03 hr 17 min 43 sec)
Heartbeat CPU 0 instructions: 420000003 cycles: 161049875 heartbeat IPC: 1.049 cumulative IPC: 2.491 (Simulation time: 03 hr 26 min 42 sec)
Heartbeat CPU 0 instructions: 430000004 cycles: 166938012 heartbeat IPC: 1.698 cumulative IPC: 2.461 (Simulation time: 03 hr 33 min 36 sec)
Heartbeat CPU 0 instructions: 440000004 cycles: 173200921 heartbeat IPC: 1.597 cumulative IPC: 2.427 (Simulation time: 03 hr 40 min 33 sec)
Heartbeat CPU 0 instructions: 450000000 cycles: 178907276 heartbeat IPC: 1.752 cumulative IPC: 2.404 (Simulation time: 03 hr 47 min 01 sec)
Heartbeat CPU 0 instructions: 460000002 cycles: 189668033 heartbeat IPC: 0.9293 cumulative IPC: 2.314 (Simulation time: 03 hr 56 min 52 sec)
Heartbeat CPU 0 instructions: 470000003 cycles: 198173031 heartbeat IPC: 1.176 cumulative IPC: 2.262 (Simulation time: 04 hr 05 min 15 sec)
Heartbeat CPU 0 instructions: 480000000 cycles: 201713618 heartbeat IPC: 2.824 cumulative IPC: 2.273 (Simulation time: 04 hr 10 min 03 sec)
Heartbeat CPU 0 instructions: 490000001 cycles: 205254505 heartbeat IPC: 2.824 cumulative IPC: 2.283 (Simulation time: 04 hr 14 min 51 sec)
Heartbeat CPU 0 instructions: 500000002 cycles: 208548144 heartbeat IPC: 3.036 cumulative IPC: 2.295 (Simulation time: 04 hr 19 min 31 sec)
Heartbeat CPU 0 instructions: 510000000 cycles: 211629433 heartbeat IPC: 3.245 cumulative IPC: 2.31 (Simulation time: 04 hr 24 min 03 sec)
Heartbeat CPU 0 instructions: 520000000 cycles: 214721779 heartbeat IPC: 3.234 cumulative IPC: 2.324 (Simulation time: 04 hr 28 min 49 sec)
Heartbeat CPU 0 instructions: 530000001 cycles: 223481584 heartbeat IPC: 1.142 cumulative IPC: 2.275 (Simulation time: 04 hr 37 min 18 sec)
Heartbeat CPU 0 instructions: 540000000 cycles: 233268343 heartbeat IPC: 1.022 cumulative IPC: 2.22 (Simulation time: 04 hr 46 min 30 sec)
Heartbeat CPU 0 instructions: 550000004 cycles: 245048084 heartbeat IPC: 0.8489 cumulative IPC: 2.15 (Simulation time: 04 hr 57 min 11 sec)
Heartbeat CPU 0 instructions: 560000004 cycles: 248876116 heartbeat IPC: 2.612 cumulative IPC: 2.158 (Simulation time: 05 hr 02 min 06 sec)
Heartbeat CPU 0 instructions: 570000002 cycles: 251723833 heartbeat IPC: 3.512 cumulative IPC: 2.174 (Simulation time: 05 hr 06 min 28 sec)
Heartbeat CPU 0 instructions: 580000000 cycles: 254718986 heartbeat IPC: 3.339 cumulative IPC: 2.188 (Simulation time: 05 hr 10 min 51 sec)
Heartbeat CPU 0 instructions: 590000001 cycles: 257706546 heartbeat IPC: 3.347 cumulative IPC: 2.202 (Simulation time: 05 hr 15 min 12 sec)
Heartbeat CPU 0 instructions: 600000003 cycles: 260457445 heartbeat IPC: 3.635 cumulative IPC: 2.218 (Simulation time: 05 hr 19 min 30 sec)
Heartbeat CPU 0 instructions: 610000001 cycles: 263402790 heartbeat IPC: 3.395 cumulative IPC: 2.232 (Simulation time: 05 hr 23 min 52 sec)
Heartbeat CPU 0 instructions: 620000002 cycles: 266429756 heartbeat IPC: 3.304 cumulative IPC: 2.245 (Simulation time: 05 hr 28 min 15 sec)
Heartbeat CPU 0 instructions: 630000002 cycles: 269314488 heartbeat IPC: 3.467 cumulative IPC: 2.258 (Simulation time: 05 hr 32 min 35 sec)
Heartbeat CPU 0 instructions: 640000004 cycles: 272390744 heartbeat IPC: 3.251 cumulative IPC: 2.27 (Simulation time: 05 hr 37 min 03 sec)
Heartbeat CPU 0 instructions: 650000001 cycles: 275142525 heartbeat IPC: 3.634 cumulative IPC: 2.284 (Simulation time: 05 hr 41 min 21 sec)
Simulation finished CPU 0 instructions: 600000001 cycles: 262642464 cumulative IPC: 2.284 (Simulation time: 05 hr 41 min 21 sec)
Simulation complete CPU 0 instructions: 600000001 cycles: 262642464 cumulative IPC: 2.284 (Simulation time: 05 hr 41 min 21 sec)

ChampSim completed all CPUs

=== Simulation ===
CPU 0 runs traces/400.perlbench-50B.champsimtrace.xz
Region of Interest Statistics

CPU 0 cumulative IPC: 2.284 instructions: 600000001 cycles: 262642464
CPU 0 Branch Prediction Accuracy: 98.73% MPKI: 2.62 Average ROB Occupancy at Mispredict: 86.24
Branch type MPKI
BRANCH_DIRECT_JUMP: 0.0176
BRANCH_INDIRECT: 0.38
BRANCH_CONDITIONAL: 1.77
BRANCH_DIRECT_CALL: 0.0067
BRANCH_INDIRECT_CALL: 0.431
BRANCH_RETURN: 0.0161

LLC TOTAL        ACCESS:     879101 HIT:     258620 MISS:     620481
LLC LOAD         ACCESS:     376407 HIT:     111859 MISS:     264548
LLC RFO          ACCESS:      32513 HIT:      10460 MISS:      22053
LLC PREFETCH     ACCESS:     368254 HIT:      96462 MISS:     271792
LLC WRITE        ACCESS:      83681 HIT:      37972 MISS:      45709
LLC TRANSLATION  ACCESS:      18246 HIT:       1867 MISS:      16379
LLC PREFETCH REQUESTED:     368254 ISSUED:     368254 USEFUL:       2241 USELESS:        292
LLC AVERAGE MISS LATENCY: 319.3 cycles
cpu0_DTLB TOTAL        ACCESS:  134579612 HIT:  133229896 MISS:    1349716
cpu0_DTLB LOAD         ACCESS:  134579612 HIT:  133229896 MISS:    1349716
cpu0_DTLB RFO          ACCESS:          0 HIT:          0 MISS:          0
cpu0_DTLB PREFETCH     ACCESS:          0 HIT:          0 MISS:          0
cpu0_DTLB WRITE        ACCESS:          0 HIT:          0 MISS:          0
cpu0_DTLB TRANSLATION  ACCESS:          0 HIT:          0 MISS:          0
cpu0_DTLB PREFETCH REQUESTED:          0 ISSUED:          0 USEFUL:          0 USELESS:          0
cpu0_DTLB AVERAGE MISS LATENCY: 14.68 cycles
cpu0_ITLB TOTAL        ACCESS:    8978372 HIT:    8770277 MISS:     208095
cpu0_ITLB LOAD         ACCESS:    8978372 HIT:    8770277 MISS:     208095
cpu0_ITLB RFO          ACCESS:          0 HIT:          0 MISS:          0
cpu0_ITLB PREFETCH     ACCESS:          0 HIT:          0 MISS:          0
cpu0_ITLB WRITE        ACCESS:          0 HIT:          0 MISS:          0
cpu0_ITLB TRANSLATION  ACCESS:          0 HIT:          0 MISS:          0
cpu0_ITLB PREFETCH REQUESTED:          0 ISSUED:          0 USEFUL:          0 USELESS:          0
cpu0_ITLB AVERAGE MISS LATENCY: 3.426 cycles
cpu0_L1D TOTAL        ACCESS:  180657136 HIT:  177721361 MISS:    2935775
cpu0_L1D LOAD         ACCESS:   95101551 HIT:   92690393 MISS:    2411158
cpu0_L1D RFO          ACCESS:          0 HIT:          0 MISS:          0
cpu0_L1D PREFETCH     ACCESS:          0 HIT:          0 MISS:          0
cpu0_L1D WRITE        ACCESS:   85527051 HIT:   85028967 MISS:     498084
cpu0_L1D TRANSLATION  ACCESS:      28534 HIT:       2001 MISS:      26533
cpu0_L1D PREFETCH REQUESTED:          0 ISSUED:          0 USEFUL:          0 USELESS:          0
cpu0_L1D AVERAGE MISS LATENCY: 67.28 cycles
cpu0_L1I TOTAL        ACCESS:   10493034 HIT:    8602175 MISS:    1890859
cpu0_L1I LOAD         ACCESS:   10493034 HIT:    8602175 MISS:    1890859
cpu0_L1I RFO          ACCESS:          0 HIT:          0 MISS:          0
cpu0_L1I PREFETCH     ACCESS:          0 HIT:          0 MISS:          0
cpu0_L1I WRITE        ACCESS:          0 HIT:          0 MISS:          0
cpu0_L1I TRANSLATION  ACCESS:          0 HIT:          0 MISS:          0
cpu0_L1I PREFETCH REQUESTED:          0 ISSUED:          0 USEFUL:          0 USELESS:          0
cpu0_L1I AVERAGE MISS LATENCY: 11.89 cycles
cpu0_L2C TOTAL        ACCESS:    3236201 HIT:    2808161 MISS:     428040
cpu0_L2C LOAD         ACCESS:    2709746 HIT:    2333339 MISS:     376407
cpu0_L2C RFO          ACCESS:     135298 HIT:     102785 MISS:      32513
cpu0_L2C PREFETCH     ACCESS:          0 HIT:          0 MISS:          0
cpu0_L2C WRITE        ACCESS:     364713 HIT:     363839 MISS:        874
cpu0_L2C TRANSLATION  ACCESS:      26444 HIT:       8198 MISS:      18246
cpu0_L2C PREFETCH REQUESTED:          0 ISSUED:          0 USEFUL:          0 USELESS:          0
cpu0_L2C AVERAGE MISS LATENCY: 479.9 cycles
cpu0_STLB TOTAL        ACCESS:    1009785 HIT:     983094 MISS:      26691
cpu0_STLB LOAD         ACCESS:    1009785 HIT:     983094 MISS:      26691
cpu0_STLB RFO          ACCESS:          0 HIT:          0 MISS:          0
cpu0_STLB PREFETCH     ACCESS:          0 HIT:          0 MISS:          0
cpu0_STLB WRITE        ACCESS:          0 HIT:          0 MISS:          0
cpu0_STLB TRANSLATION  ACCESS:          0 HIT:          0 MISS:          0
cpu0_STLB PREFETCH REQUESTED:          0 ISSUED:          0 USEFUL:          0 USELESS:          0
cpu0_STLB AVERAGE MISS LATENCY: 550.5 cycles

DRAM Statistics

Channel 0 RQ ROW_BUFFER_HIT:      80709
  ROW_BUFFER_MISS:     340878
 AVG DBUS CONGESTED CYCLE: 3.879
WQ ROW_BUFFER_HIT: Channel 0 
  ROW_BUFFER_MISS:       5905
  FULL:      40837
