WARNING: physical memory size is smaller than virtual memory size.

*** ChampSim Multicore Out-of-Order Simulator ***
Warmup Instructions: 50000000
Simulation Instructions: 600000000
Number of CPUs: 1
Page size: 4096

Off-chip DRAM Size: 4 GiB Channels: 1 Width: 64-bit Data Race: 3200 MT/s
Heartbeat CPU 0 instructions: 10000001 cycles: 2500318 heartbeat IPC: 3.999 cumulative IPC: 3.999 (Simulation time: 00 hr 03 min 43 sec)
Heartbeat CPU 0 instructions: 20000002 cycles: 5037108 heartbeat IPC: 3.942 cumulative IPC: 3.971 (Simulation time: 00 hr 07 min 32 sec)
Heartbeat CPU 0 instructions: 30000002 cycles: 7537108 heartbeat IPC: 4 cumulative IPC: 3.98 (Simulation time: 00 hr 11 min 02 sec)
Heartbeat CPU 0 instructions: 40000002 cycles: 10037108 heartbeat IPC: 4 cumulative IPC: 3.985 (Simulation time: 00 hr 14 min 32 sec)
Heartbeat CPU 0 instructions: 50000002 cycles: 12537108 heartbeat IPC: 4 cumulative IPC: 3.988 (Simulation time: 00 hr 18 min 05 sec)
Warmup finished CPU 0 instructions: 50000002 cycles: 12537109 cumulative IPC: 3.988 (Simulation time: 00 hr 18 min 05 sec)
Warmup complete CPU 0 instructions: 50000002 cycles: 12537109 cumulative IPC: 3.988 (Simulation time: 00 hr 18 min 05 sec)
Heartbeat CPU 0 instructions: 60000000 cycles: 17156257 heartbeat IPC: 2.165 cumulative IPC: 2.165 (Simulation time: 00 hr 23 min 09 sec)
Heartbeat CPU 0 instructions: 70000004 cycles: 21429856 heartbeat IPC: 2.34 cumulative IPC: 2.249 (Simulation time: 00 hr 28 min 08 sec)
Heartbeat CPU 0 instructions: 80000001 cycles: 26040015 heartbeat IPC: 2.169 cumulative IPC: 2.222 (Simulation time: 00 hr 33 min 27 sec)
Heartbeat CPU 0 instructions: 90000001 cycles: 30174740 heartbeat IPC: 2.419 cumulative IPC: 2.268 (Simulation time: 00 hr 38 min 21 sec)
Heartbeat CPU 0 instructions: 100000000 cycles: 34237467 heartbeat IPC: 2.461 cumulative IPC: 2.304 (Simulation time: 00 hr 43 min 13 sec)
Heartbeat CPU 0 instructions: 110000000 cycles: 38473910 heartbeat IPC: 2.36 cumulative IPC: 2.313 (Simulation time: 00 hr 48 min 06 sec)
Heartbeat CPU 0 instructions: 120000001 cycles: 42489930 heartbeat IPC: 2.49 cumulative IPC: 2.337 (Simulation time: 00 hr 52 min 53 sec)
Heartbeat CPU 0 instructions: 130000001 cycles: 46232996 heartbeat IPC: 2.672 cumulative IPC: 2.374 (Simulation time: 00 hr 57 min 37 sec)
Heartbeat CPU 0 instructions: 140000001 cycles: 50402298 heartbeat IPC: 2.398 cumulative IPC: 2.377 (Simulation time: 01 hr 02 min 30 sec)
Heartbeat CPU 0 instructions: 150000001 cycles: 54613029 heartbeat IPC: 2.375 cumulative IPC: 2.377 (Simulation time: 01 hr 07 min 25 sec)
Heartbeat CPU 0 instructions: 160000004 cycles: 59046169 heartbeat IPC: 2.256 cumulative IPC: 2.365 (Simulation time: 01 hr 12 min 28 sec)
Heartbeat CPU 0 instructions: 170000004 cycles: 67074392 heartbeat IPC: 1.246 cumulative IPC: 2.2 (Simulation time: 01 hr 19 min 58 sec)
Heartbeat CPU 0 instructions: 180000004 cycles: 75238513 heartbeat IPC: 1.225 cumulative IPC: 2.073 (Simulation time: 01 hr 27 min 39 sec)
Heartbeat CPU 0 instructions: 190000001 cycles: 85685718 heartbeat IPC: 0.9572 cumulative IPC: 1.914 (Simulation time: 01 hr 36 min 50 sec)
Heartbeat CPU 0 instructions: 200000004 cycles: 89478755 heartbeat IPC: 2.636 cumulative IPC: 1.95 (Simulation time: 01 hr 41 min 32 sec)
Heartbeat CPU 0 instructions: 210000001 cycles: 93404472 heartbeat IPC: 2.547 cumulative IPC: 1.979 (Simulation time: 01 hr 46 min 21 sec)
Heartbeat CPU 0 instructions: 220000000 cycles: 97370635 heartbeat IPC: 2.521 cumulative IPC: 2.004 (Simulation time: 01 hr 51 min 18 sec)
Heartbeat CPU 0 instructions: 230000002 cycles: 102056092 heartbeat IPC: 2.134 cumulative IPC: 2.011 (Simulation time: 01 hr 56 min 27 sec)
Heartbeat CPU 0 instructions: 240000000 cycles: 106252571 heartbeat IPC: 2.383 cumulative IPC: 2.027 (Simulation time: 02 hr 01 min 22 sec)
Heartbeat CPU 0 instructions: 250000000 cycles: 110591090 heartbeat IPC: 2.305 cumulative IPC: 2.04 (Simulation time: 02 hr 06 min 24 sec)
Heartbeat CPU 0 instructions: 260000000 cycles: 114783768 heartbeat IPC: 2.385 cumulative IPC: 2.054 (Simulation time: 02 hr 11 min 18 sec)
Heartbeat CPU 0 instructions: 270000002 cycles: 118645101 heartbeat IPC: 2.59 cumulative IPC: 2.073 (Simulation time: 02 hr 16 min 02 sec)
Heartbeat CPU 0 instructions: 280000002 cycles: 122821490 heartbeat IPC: 2.394 cumulative IPC: 2.086 (Simulation time: 02 hr 20 min 55 sec)
Heartbeat CPU 0 instructions: 290000001 cycles: 126731573 heartbeat IPC: 2.557 cumulative IPC: 2.102 (Simulation time: 02 hr 25 min 39 sec)
Heartbeat CPU 0 instructions: 300000003 cycles: 130575726 heartbeat IPC: 2.601 cumulative IPC: 2.118 (Simulation time: 02 hr 30 min 22 sec)
Heartbeat CPU 0 instructions: 310000001 cycles: 134714572 heartbeat IPC: 2.416 cumulative IPC: 2.128 (Simulation time: 02 hr 35 min 19 sec)
Heartbeat CPU 0 instructions: 320000003 cycles: 138810334 heartbeat IPC: 2.442 cumulative IPC: 2.138 (Simulation time: 02 hr 40 min 11 sec)
Heartbeat CPU 0 instructions: 330000003 cycles: 143245872 heartbeat IPC: 2.255 cumulative IPC: 2.142 (Simulation time: 02 hr 45 min 14 sec)
Heartbeat CPU 0 instructions: 340000000 cycles: 151387437 heartbeat IPC: 1.228 cumulative IPC: 2.089 (Simulation time: 02 hr 52 min 52 sec)
Heartbeat CPU 0 instructions: 350000000 cycles: 160061887 heartbeat IPC: 1.153 cumulative IPC: 2.034 (Simulation time: 03 hr 00 min 53 sec)
Heartbeat CPU 0 instructions: 360000004 cycles: 170413404 heartbeat IPC: 0.966 cumulative IPC: 1.964 (Simulation time: 03 hr 10 min 02 sec)
Heartbeat CPU 0 instructions: 370000000 cycles: 173867721 heartbeat IPC: 2.895 cumulative IPC: 1.984 (Simulation time: 03 hr 14 min 32 sec)
Heartbeat CPU 0 instructions: 380000001 cycles: 177289153 heartbeat IPC: 2.923 cumulative IPC: 2.003 (Simulation time: 03 hr 19 min 07 sec)
Heartbeat CPU 0 instructions: 390000004 cycles: 181042183 heartbeat IPC: 2.665 cumulative IPC: 2.018 (Simulation time: 03 hr 23 min 59 sec)
Heartbeat CPU 0 instructions: 400000004 cycles: 184857465 heartbeat IPC: 2.621 cumulative IPC: 2.031 (Simulation time: 03 hr 28 min 40 sec)
Heartbeat CPU 0 instructions: 410000001 cycles: 188521503 heartbeat IPC: 2.729 cumulative IPC: 2.046 (Simulation time: 03 hr 33 min 15 sec)
Heartbeat CPU 0 instructions: 420000003 cycles: 192565919 heartbeat IPC: 2.473 cumulative IPC: 2.055 (Simulation time: 03 hr 38 min 06 sec)
Heartbeat CPU 0 instructions: 430000001 cycles: 196238645 heartbeat IPC: 2.723 cumulative IPC: 2.069 (Simulation time: 03 hr 42 min 46 sec)
Heartbeat CPU 0 instructions: 440000004 cycles: 200338414 heartbeat IPC: 2.439 cumulative IPC: 2.077 (Simulation time: 03 hr 47 min 39 sec)
Heartbeat CPU 0 instructions: 450000002 cycles: 204088106 heartbeat IPC: 2.667 cumulative IPC: 2.088 (Simulation time: 03 hr 52 min 19 sec)
Heartbeat CPU 0 instructions: 460000000 cycles: 207770106 heartbeat IPC: 2.716 cumulative IPC: 2.1 (Simulation time: 03 hr 56 min 58 sec)
Heartbeat CPU 0 instructions: 470000000 cycles: 211244998 heartbeat IPC: 2.878 cumulative IPC: 2.114 (Simulation time: 04 hr 01 min 31 sec)
Heartbeat CPU 0 instructions: 480000003 cycles: 215093627 heartbeat IPC: 2.598 cumulative IPC: 2.123 (Simulation time: 04 hr 06 min 15 sec)
Heartbeat CPU 0 instructions: 490000000 cycles: 218729965 heartbeat IPC: 2.75 cumulative IPC: 2.134 (Simulation time: 04 hr 10 min 52 sec)
Heartbeat CPU 0 instructions: 500000000 cycles: 222437529 heartbeat IPC: 2.697 cumulative IPC: 2.144 (Simulation time: 04 hr 15 min 30 sec)
Heartbeat CPU 0 instructions: 510000003 cycles: 226129937 heartbeat IPC: 2.708 cumulative IPC: 2.154 (Simulation time: 04 hr 20 min 10 sec)
Heartbeat CPU 0 instructions: 520000001 cycles: 229557795 heartbeat IPC: 2.917 cumulative IPC: 2.166 (Simulation time: 04 hr 24 min 43 sec)
Heartbeat CPU 0 instructions: 530000002 cycles: 233242462 heartbeat IPC: 2.714 cumulative IPC: 2.175 (Simulation time: 04 hr 29 min 20 sec)
Heartbeat CPU 0 instructions: 540000000 cycles: 236779854 heartbeat IPC: 2.827 cumulative IPC: 2.185 (Simulation time: 04 hr 33 min 52 sec)
Heartbeat CPU 0 instructions: 550000001 cycles: 240489377 heartbeat IPC: 2.696 cumulative IPC: 2.193 (Simulation time: 04 hr 38 min 31 sec)
Heartbeat CPU 0 instructions: 560000000 cycles: 244505966 heartbeat IPC: 2.49 cumulative IPC: 2.199 (Simulation time: 04 hr 43 min 23 sec)
Heartbeat CPU 0 instructions: 570000004 cycles: 250817063 heartbeat IPC: 1.585 cumulative IPC: 2.182 (Simulation time: 04 hr 49 min 57 sec)
Heartbeat CPU 0 instructions: 580000003 cycles: 258362842 heartbeat IPC: 1.325 cumulative IPC: 2.156 (Simulation time: 04 hr 57 min 14 sec)
Heartbeat CPU 0 instructions: 590000002 cycles: 271137530 heartbeat IPC: 0.7828 cumulative IPC: 2.088 (Simulation time: 05 hr 08 min 04 sec)
Heartbeat CPU 0 instructions: 600000000 cycles: 274922096 heartbeat IPC: 2.642 cumulative IPC: 2.096 (Simulation time: 05 hr 12 min 51 sec)
Heartbeat CPU 0 instructions: 610000000 cycles: 278792542 heartbeat IPC: 2.584 cumulative IPC: 2.103 (Simulation time: 05 hr 17 min 43 sec)
Heartbeat CPU 0 instructions: 620000001 cycles: 282228845 heartbeat IPC: 2.91 cumulative IPC: 2.114 (Simulation time: 05 hr 22 min 14 sec)
Heartbeat CPU 0 instructions: 630000002 cycles: 286516112 heartbeat IPC: 2.332 cumulative IPC: 2.117 (Simulation time: 05 hr 27 min 11 sec)
Heartbeat CPU 0 instructions: 640000001 cycles: 290417045 heartbeat IPC: 2.563 cumulative IPC: 2.123 (Simulation time: 05 hr 31 min 55 sec)
Heartbeat CPU 0 instructions: 650000000 cycles: 294175267 heartbeat IPC: 2.661 cumulative IPC: 2.13 (Simulation time: 05 hr 36 min 34 sec)
Simulation finished CPU 0 instructions: 600000001 cycles: 281638160 cumulative IPC: 2.13 (Simulation time: 05 hr 36 min 34 sec)
Simulation complete CPU 0 instructions: 600000001 cycles: 281638160 cumulative IPC: 2.13 (Simulation time: 05 hr 36 min 34 sec)

ChampSim completed all CPUs

=== Simulation ===
CPU 0 runs traces/400.perlbench-41B.champsimtrace.xz
Region of Interest Statistics

CPU 0 cumulative IPC: 2.13 instructions: 600000001 cycles: 281638160
CPU 0 Branch Prediction Accuracy: 96.56% MPKI: 7.112 Average ROB Occupancy at Mispredict: 47.12
Branch type MPKI
BRANCH_DIRECT_JUMP: 0.0123
BRANCH_INDIRECT: 0.323
BRANCH_CONDITIONAL: 6.56
BRANCH_DIRECT_CALL: 0.0043
BRANCH_INDIRECT_CALL: 0.2
BRANCH_RETURN: 0.00828

LLC TOTAL        ACCESS:     414578 HIT:     180623 MISS:     233955
LLC LOAD         ACCESS:     309528 HIT:     130070 MISS:     179458
LLC RFO          ACCESS:      25158 HIT:      10997 MISS:      14161
LLC PREFETCH     ACCESS:          0 HIT:          0 MISS:          0
LLC WRITE        ACCESS:      64159 HIT:      36071 MISS:      28088
LLC TRANSLATION  ACCESS:      15733 HIT:       3485 MISS:      12248
LLC PREFETCH REQUESTED:          0 ISSUED:          0 USEFUL:          0 USELESS:          0
LLC AVERAGE MISS LATENCY: 498.4 cycles
cpu0_DTLB TOTAL        ACCESS:  141884916 HIT:  141199390 MISS:     685526
cpu0_DTLB LOAD         ACCESS:  141884916 HIT:  141199390 MISS:     685526
cpu0_DTLB RFO          ACCESS:          0 HIT:          0 MISS:          0
cpu0_DTLB PREFETCH     ACCESS:          0 HIT:          0 MISS:          0
cpu0_DTLB WRITE        ACCESS:          0 HIT:          0 MISS:          0
cpu0_DTLB TRANSLATION  ACCESS:          0 HIT:          0 MISS:          0
cpu0_DTLB PREFETCH REQUESTED:          0 ISSUED:          0 USEFUL:          0 USELESS:          0
cpu0_DTLB AVERAGE MISS LATENCY: 16.29 cycles
cpu0_ITLB TOTAL        ACCESS:    4858677 HIT:    4805374 MISS:      53303
cpu0_ITLB LOAD         ACCESS:    4858677 HIT:    4805374 MISS:      53303
cpu0_ITLB RFO          ACCESS:          0 HIT:          0 MISS:          0
cpu0_ITLB PREFETCH     ACCESS:          0 HIT:          0 MISS:          0
cpu0_ITLB WRITE        ACCESS:          0 HIT:          0 MISS:          0
cpu0_ITLB TRANSLATION  ACCESS:          0 HIT:          0 MISS:          0
cpu0_ITLB PREFETCH REQUESTED:          0 ISSUED:          0 USEFUL:          0 USELESS:          0
cpu0_ITLB AVERAGE MISS LATENCY: 7.122 cycles
cpu0_L1D TOTAL        ACCESS:  188564110 HIT:  187233067 MISS:    1331043
cpu0_L1D LOAD         ACCESS:  105196088 HIT:  104166914 MISS:    1029174
cpu0_L1D RFO          ACCESS:          0 HIT:          0 MISS:          0
cpu0_L1D PREFETCH     ACCESS:          0 HIT:          0 MISS:          0
cpu0_L1D WRITE        ACCESS:   83343556 HIT:   83064545 MISS:     279011
cpu0_L1D TRANSLATION  ACCESS:      24466 HIT:       1608 MISS:      22858
cpu0_L1D PREFETCH REQUESTED:          0 ISSUED:          0 USEFUL:          0 USELESS:          0
cpu0_L1D AVERAGE MISS LATENCY: 93.05 cycles
cpu0_L1I TOTAL        ACCESS:    5596450 HIT:    4852314 MISS:     744136
cpu0_L1I LOAD         ACCESS:    5596450 HIT:    4852314 MISS:     744136
cpu0_L1I RFO          ACCESS:          0 HIT:          0 MISS:          0
cpu0_L1I PREFETCH     ACCESS:          0 HIT:          0 MISS:          0
cpu0_L1I WRITE        ACCESS:          0 HIT:          0 MISS:          0
cpu0_L1I TRANSLATION  ACCESS:          0 HIT:          0 MISS:          0
cpu0_L1I PREFETCH REQUESTED:          0 ISSUED:          0 USEFUL:          0 USELESS:          0
cpu0_L1I AVERAGE MISS LATENCY: 10 cycles
cpu0_L2C TOTAL        ACCESS:    1380824 HIT:    1029528 MISS:     351296
cpu0_L2C LOAD         ACCESS:    1124774 HIT:     815246 MISS:     309528
cpu0_L2C RFO          ACCESS:      63776 HIT:      38618 MISS:      25158
cpu0_L2C PREFETCH     ACCESS:          0 HIT:          0 MISS:          0
cpu0_L2C WRITE        ACCESS:     169488 HIT:     168611 MISS:        877
cpu0_L2C TRANSLATION  ACCESS:      22786 HIT:       7053 MISS:      15733
cpu0_L2C PREFETCH REQUESTED:          0 ISSUED:          0 USEFUL:          0 USELESS:          0
cpu0_L2C AVERAGE MISS LATENCY: 352.5 cycles
cpu0_STLB TOTAL        ACCESS:     507250 HIT:     484454 MISS:      22796
cpu0_STLB LOAD         ACCESS:     507250 HIT:     484454 MISS:      22796
cpu0_STLB RFO          ACCESS:          0 HIT:          0 MISS:          0
cpu0_STLB PREFETCH     ACCESS:          0 HIT:          0 MISS:          0
cpu0_STLB WRITE        ACCESS:          0 HIT:          0 MISS:          0
cpu0_STLB TRANSLATION  ACCESS:          0 HIT:          0 MISS:          0
cpu0_STLB PREFETCH REQUESTED:          0 ISSUED:          0 USEFUL:          0 USELESS:          0
cpu0_STLB AVERAGE MISS LATENCY: 372.7 cycles

DRAM Statistics

Channel 0 RQ ROW_BUFFER_HIT:      31260
  ROW_BUFFER_MISS:     174594
 AVG DBUS CONGESTED CYCLE: 3.798
WQ ROW_BUFFER_HIT: Channel 0 
  ROW_BUFFER_MISS:       7512
  FULL:      22830
