WARNING: physical memory size is smaller than virtual memory size.

*** ChampSim Multicore Out-of-Order Simulator ***
Warmup Instructions: 50000000
Simulation Instructions: 600000000
Number of CPUs: 1
Page size: 4096

CPU 0 Tage branch predictor
Off-chip DRAM Size: 4 GiB Channels: 1 Width: 64-bit Data Race: 3200 MT/s
Heartbeat CPU 0 instructions: 10000001 cycles: 2500319 heartbeat IPC: 3.999 cumulative IPC: 3.999 (Simulation time: 00 hr 04 min 15 sec)
Heartbeat CPU 0 instructions: 20000002 cycles: 5037102 heartbeat IPC: 3.942 cumulative IPC: 3.971 (Simulation time: 00 hr 08 min 49 sec)
Heartbeat CPU 0 instructions: 30000002 cycles: 7537102 heartbeat IPC: 4 cumulative IPC: 3.98 (Simulation time: 00 hr 12 min 55 sec)
Heartbeat CPU 0 instructions: 40000002 cycles: 10037102 heartbeat IPC: 4 cumulative IPC: 3.985 (Simulation time: 00 hr 17 min 02 sec)
Heartbeat CPU 0 instructions: 50000002 cycles: 12537102 heartbeat IPC: 4 cumulative IPC: 3.988 (Simulation time: 00 hr 21 min 06 sec)
Warmup finished CPU 0 instructions: 50000002 cycles: 12537103 cumulative IPC: 3.988 (Simulation time: 00 hr 21 min 06 sec)
Warmup complete CPU 0 instructions: 50000002 cycles: 12537103 cumulative IPC: 3.988 (Simulation time: 00 hr 21 min 06 sec)
Heartbeat CPU 0 instructions: 60000001 cycles: 15564154 heartbeat IPC: 3.304 cumulative IPC: 3.304 (Simulation time: 00 hr 25 min 51 sec)
Heartbeat CPU 0 instructions: 70000004 cycles: 18667416 heartbeat IPC: 3.222 cumulative IPC: 3.262 (Simulation time: 00 hr 30 min 15 sec)
Heartbeat CPU 0 instructions: 80000001 cycles: 21753545 heartbeat IPC: 3.24 cumulative IPC: 3.255 (Simulation time: 00 hr 34 min 18 sec)
Heartbeat CPU 0 instructions: 90000001 cycles: 24720918 heartbeat IPC: 3.37 cumulative IPC: 3.283 (Simulation time: 00 hr 38 min 13 sec)
Heartbeat CPU 0 instructions: 100000000 cycles: 27664775 heartbeat IPC: 3.397 cumulative IPC: 3.305 (Simulation time: 00 hr 41 min 56 sec)
Heartbeat CPU 0 instructions: 110000000 cycles: 30630058 heartbeat IPC: 3.372 cumulative IPC: 3.316 (Simulation time: 00 hr 45 min 33 sec)
Heartbeat CPU 0 instructions: 120000001 cycles: 33634015 heartbeat IPC: 3.329 cumulative IPC: 3.318 (Simulation time: 00 hr 49 min 02 sec)
Heartbeat CPU 0 instructions: 130000001 cycles: 36521419 heartbeat IPC: 3.463 cumulative IPC: 3.336 (Simulation time: 00 hr 52 min 23 sec)
Heartbeat CPU 0 instructions: 140000001 cycles: 39618632 heartbeat IPC: 3.229 cumulative IPC: 3.323 (Simulation time: 00 hr 55 min 36 sec)
Heartbeat CPU 0 instructions: 150000001 cycles: 42673306 heartbeat IPC: 3.274 cumulative IPC: 3.318 (Simulation time: 00 hr 58 min 43 sec)
Heartbeat CPU 0 instructions: 160000004 cycles: 45741452 heartbeat IPC: 3.259 cumulative IPC: 3.313 (Simulation time: 01 hr 02 min 05 sec)
Heartbeat CPU 0 instructions: 170000000 cycles: 52762889 heartbeat IPC: 1.424 cumulative IPC: 2.983 (Simulation time: 01 hr 07 min 09 sec)
Heartbeat CPU 0 instructions: 180000004 cycles: 60476622 heartbeat IPC: 1.296 cumulative IPC: 2.712 (Simulation time: 01 hr 12 min 27 sec)
Heartbeat CPU 0 instructions: 190000001 cycles: 68908231 heartbeat IPC: 1.186 cumulative IPC: 2.484 (Simulation time: 01 hr 18 min 18 sec)
Heartbeat CPU 0 instructions: 200000004 cycles: 71891552 heartbeat IPC: 3.352 cumulative IPC: 2.527 (Simulation time: 01 hr 21 min 24 sec)
Heartbeat CPU 0 instructions: 210000001 cycles: 74869738 heartbeat IPC: 3.358 cumulative IPC: 2.567 (Simulation time: 01 hr 24 min 37 sec)
Heartbeat CPU 0 instructions: 220000000 cycles: 77773166 heartbeat IPC: 3.444 cumulative IPC: 2.606 (Simulation time: 01 hr 27 min 49 sec)
Heartbeat CPU 0 instructions: 230000002 cycles: 80844244 heartbeat IPC: 3.256 cumulative IPC: 2.635 (Simulation time: 01 hr 31 min 02 sec)
Heartbeat CPU 0 instructions: 240000003 cycles: 83911009 heartbeat IPC: 3.261 cumulative IPC: 2.662 (Simulation time: 01 hr 34 min 25 sec)
Heartbeat CPU 0 instructions: 250000000 cycles: 86969573 heartbeat IPC: 3.27 cumulative IPC: 2.687 (Simulation time: 01 hr 37 min 44 sec)
Heartbeat CPU 0 instructions: 260000002 cycles: 89956962 heartbeat IPC: 3.347 cumulative IPC: 2.712 (Simulation time: 01 hr 40 min 50 sec)
Heartbeat CPU 0 instructions: 270000002 cycles: 92890131 heartbeat IPC: 3.409 cumulative IPC: 2.738 (Simulation time: 01 hr 44 min 03 sec)
Heartbeat CPU 0 instructions: 280000002 cycles: 95793493 heartbeat IPC: 3.444 cumulative IPC: 2.763 (Simulation time: 01 hr 47 min 13 sec)
Heartbeat CPU 0 instructions: 290000002 cycles: 98784984 heartbeat IPC: 3.343 cumulative IPC: 2.783 (Simulation time: 01 hr 50 min 20 sec)
Heartbeat CPU 0 instructions: 300000003 cycles: 101719746 heartbeat IPC: 3.407 cumulative IPC: 2.803 (Simulation time: 01 hr 53 min 31 sec)
Heartbeat CPU 0 instructions: 310000001 cycles: 104810491 heartbeat IPC: 3.235 cumulative IPC: 2.818 (Simulation time: 01 hr 56 min 44 sec)
Heartbeat CPU 0 instructions: 320000003 cycles: 107855708 heartbeat IPC: 3.284 cumulative IPC: 2.833 (Simulation time: 02 hr 00 min 00 sec)
Heartbeat CPU 0 instructions: 330000003 cycles: 110899698 heartbeat IPC: 3.285 cumulative IPC: 2.847 (Simulation time: 02 hr 03 min 17 sec)
Heartbeat CPU 0 instructions: 340000000 cycles: 118324085 heartbeat IPC: 1.347 cumulative IPC: 2.741 (Simulation time: 02 hr 08 min 19 sec)
Heartbeat CPU 0 instructions: 350000000 cycles: 126532830 heartbeat IPC: 1.218 cumulative IPC: 2.632 (Simulation time: 02 hr 13 min 58 sec)
Heartbeat CPU 0 instructions: 360000004 cycles: 135219669 heartbeat IPC: 1.151 cumulative IPC: 2.527 (Simulation time: 02 hr 19 min 44 sec)
Heartbeat CPU 0 instructions: 370000000 cycles: 138192773 heartbeat IPC: 3.363 cumulative IPC: 2.547 (Simulation time: 02 hr 23 min 03 sec)
Heartbeat CPU 0 instructions: 380000003 cycles: 141129748 heartbeat IPC: 3.405 cumulative IPC: 2.566 (Simulation time: 02 hr 26 min 03 sec)
Heartbeat CPU 0 instructions: 390000002 cycles: 144122820 heartbeat IPC: 3.341 cumulative IPC: 2.584 (Simulation time: 02 hr 29 min 19 sec)
Heartbeat CPU 0 instructions: 400000004 cycles: 147030289 heartbeat IPC: 3.439 cumulative IPC: 2.602 (Simulation time: 02 hr 32 min 33 sec)
Heartbeat CPU 0 instructions: 410000002 cycles: 150001117 heartbeat IPC: 3.366 cumulative IPC: 2.619 (Simulation time: 02 hr 35 min 46 sec)
Heartbeat CPU 0 instructions: 420000003 cycles: 153242754 heartbeat IPC: 3.085 cumulative IPC: 2.63 (Simulation time: 02 hr 39 min 09 sec)
Heartbeat CPU 0 instructions: 430000001 cycles: 156284886 heartbeat IPC: 3.287 cumulative IPC: 2.644 (Simulation time: 02 hr 42 min 17 sec)
Heartbeat CPU 0 instructions: 440000004 cycles: 159448947 heartbeat IPC: 3.16 cumulative IPC: 2.655 (Simulation time: 02 hr 45 min 33 sec)
Heartbeat CPU 0 instructions: 450000002 cycles: 162399519 heartbeat IPC: 3.389 cumulative IPC: 2.669 (Simulation time: 02 hr 48 min 42 sec)
Heartbeat CPU 0 instructions: 460000000 cycles: 165346502 heartbeat IPC: 3.393 cumulative IPC: 2.683 (Simulation time: 02 hr 51 min 55 sec)
Heartbeat CPU 0 instructions: 470000001 cycles: 168224096 heartbeat IPC: 3.475 cumulative IPC: 2.698 (Simulation time: 02 hr 55 min 08 sec)
Heartbeat CPU 0 instructions: 480000003 cycles: 171346040 heartbeat IPC: 3.203 cumulative IPC: 2.708 (Simulation time: 02 hr 58 min 20 sec)
Heartbeat CPU 0 instructions: 490000004 cycles: 174187322 heartbeat IPC: 3.52 cumulative IPC: 2.722 (Simulation time: 03 hr 01 min 32 sec)
Heartbeat CPU 0 instructions: 500000004 cycles: 177187517 heartbeat IPC: 3.333 cumulative IPC: 2.733 (Simulation time: 03 hr 04 min 41 sec)
Heartbeat CPU 0 instructions: 510000003 cycles: 180318099 heartbeat IPC: 3.194 cumulative IPC: 2.742 (Simulation time: 03 hr 08 min 05 sec)
Heartbeat CPU 0 instructions: 520000001 cycles: 183231281 heartbeat IPC: 3.433 cumulative IPC: 2.753 (Simulation time: 03 hr 11 min 19 sec)
Heartbeat CPU 0 instructions: 530000001 cycles: 186291321 heartbeat IPC: 3.268 cumulative IPC: 2.763 (Simulation time: 03 hr 14 min 32 sec)
Heartbeat CPU 0 instructions: 540000000 cycles: 189272394 heartbeat IPC: 3.354 cumulative IPC: 2.773 (Simulation time: 03 hr 17 min 53 sec)
Heartbeat CPU 0 instructions: 550000001 cycles: 192278262 heartbeat IPC: 3.327 cumulative IPC: 2.782 (Simulation time: 03 hr 21 min 01 sec)
Heartbeat CPU 0 instructions: 560000000 cycles: 195479928 heartbeat IPC: 3.123 cumulative IPC: 2.788 (Simulation time: 03 hr 24 min 17 sec)
Heartbeat CPU 0 instructions: 570000004 cycles: 200809264 heartbeat IPC: 1.876 cumulative IPC: 2.762 (Simulation time: 03 hr 28 min 29 sec)
Heartbeat CPU 0 instructions: 580000003 cycles: 208969635 heartbeat IPC: 1.225 cumulative IPC: 2.698 (Simulation time: 03 hr 33 min 55 sec)
Heartbeat CPU 0 instructions: 590000002 cycles: 220205962 heartbeat IPC: 0.89 cumulative IPC: 2.6 (Simulation time: 03 hr 40 min 25 sec)
Heartbeat CPU 0 instructions: 600000004 cycles: 223345793 heartbeat IPC: 3.185 cumulative IPC: 2.609 (Simulation time: 03 hr 43 min 34 sec)
Heartbeat CPU 0 instructions: 610000002 cycles: 226317454 heartbeat IPC: 3.365 cumulative IPC: 2.62 (Simulation time: 03 hr 46 min 28 sec)
Heartbeat CPU 0 instructions: 620000001 cycles: 229097991 heartbeat IPC: 3.596 cumulative IPC: 2.632 (Simulation time: 03 hr 49 min 06 sec)
Heartbeat CPU 0 instructions: 630000002 cycles: 232089791 heartbeat IPC: 3.342 cumulative IPC: 2.642 (Simulation time: 03 hr 51 min 31 sec)
Heartbeat CPU 0 instructions: 640000004 cycles: 235040311 heartbeat IPC: 3.389 cumulative IPC: 2.652 (Simulation time: 03 hr 53 min 56 sec)
Heartbeat CPU 0 instructions: 650000000 cycles: 237794729 heartbeat IPC: 3.631 cumulative IPC: 2.664 (Simulation time: 03 hr 56 min 12 sec)
Simulation finished CPU 0 instructions: 600000001 cycles: 225257628 cumulative IPC: 2.664 (Simulation time: 03 hr 56 min 12 sec)
Simulation complete CPU 0 instructions: 600000001 cycles: 225257628 cumulative IPC: 2.664 (Simulation time: 03 hr 56 min 12 sec)

ChampSim completed all CPUs

=== Simulation ===
CPU 0 runs traces/400.perlbench-41B.champsimtrace.xz
Region of Interest Statistics

CPU 0 cumulative IPC: 2.664 instructions: 600000001 cycles: 225257628
CPU 0 Branch Prediction Accuracy: 99.19% MPKI: 1.684 Average ROB Occupancy at Mispredict: 101.7
Branch type MPKI
BRANCH_DIRECT_JUMP: 0.0123
BRANCH_INDIRECT: 0.323
BRANCH_CONDITIONAL: 1.14
BRANCH_DIRECT_CALL: 0.0043
BRANCH_INDIRECT_CALL: 0.2
BRANCH_RETURN: 0.00828

LLC TOTAL        ACCESS:     721449 HIT:     302351 MISS:     419098
LLC LOAD         ACCESS:     308446 HIT:     133758 MISS:     174688
LLC RFO          ACCESS:      25136 HIT:      11275 MISS:      13861
LLC PREFETCH     ACCESS:     308446 HIT:     125079 MISS:     183367
LLC WRITE        ACCESS:      63812 HIT:      31273 MISS:      32539
LLC TRANSLATION  ACCESS:      15609 HIT:        966 MISS:      14643
LLC PREFETCH REQUESTED:     308446 ISSUED:     308446 USEFUL:      40753 USELESS:      97390
LLC AVERAGE MISS LATENCY: 613.8 cycles
cpu0_DTLB TOTAL        ACCESS:  129733645 HIT:  129031570 MISS:     702075
cpu0_DTLB LOAD         ACCESS:  129733645 HIT:  129031570 MISS:     702075
cpu0_DTLB RFO          ACCESS:          0 HIT:          0 MISS:          0
cpu0_DTLB PREFETCH     ACCESS:          0 HIT:          0 MISS:          0
cpu0_DTLB WRITE        ACCESS:          0 HIT:          0 MISS:          0
cpu0_DTLB TRANSLATION  ACCESS:          0 HIT:          0 MISS:          0
cpu0_DTLB PREFETCH REQUESTED:          0 ISSUED:          0 USEFUL:          0 USELESS:          0
cpu0_DTLB AVERAGE MISS LATENCY: 20.9 cycles
cpu0_ITLB TOTAL        ACCESS:    4873954 HIT:    4811289 MISS:      62665
cpu0_ITLB LOAD         ACCESS:    4873954 HIT:    4811289 MISS:      62665
cpu0_ITLB RFO          ACCESS:          0 HIT:          0 MISS:          0
cpu0_ITLB PREFETCH     ACCESS:          0 HIT:          0 MISS:          0
cpu0_ITLB WRITE        ACCESS:          0 HIT:          0 MISS:          0
cpu0_ITLB TRANSLATION  ACCESS:          0 HIT:          0 MISS:          0
cpu0_ITLB PREFETCH REQUESTED:          0 ISSUED:          0 USEFUL:          0 USELESS:          0
cpu0_ITLB AVERAGE MISS LATENCY: 7.426 cycles
cpu0_L1D TOTAL        ACCESS:  174344858 HIT:  172989172 MISS:    1355686
cpu0_L1D LOAD         ACCESS:   91322532 HIT:   90278757 MISS:    1043775
cpu0_L1D RFO          ACCESS:          0 HIT:          0 MISS:          0
cpu0_L1D PREFETCH     ACCESS:          0 HIT:          0 MISS:          0
cpu0_L1D WRITE        ACCESS:   82997854 HIT:   82708808 MISS:     289046
cpu0_L1D TRANSLATION  ACCESS:      24472 HIT:       1607 MISS:      22865
cpu0_L1D PREFETCH REQUESTED:          0 ISSUED:          0 USEFUL:          0 USELESS:          0
cpu0_L1D AVERAGE MISS LATENCY: 108.4 cycles
cpu0_L1I TOTAL        ACCESS:    5652983 HIT:    4848011 MISS:     804972
cpu0_L1I LOAD         ACCESS:    5652983 HIT:    4848011 MISS:     804972
cpu0_L1I RFO          ACCESS:          0 HIT:          0 MISS:          0
cpu0_L1I PREFETCH     ACCESS:          0 HIT:          0 MISS:          0
cpu0_L1I WRITE        ACCESS:          0 HIT:          0 MISS:          0
cpu0_L1I TRANSLATION  ACCESS:          0 HIT:          0 MISS:          0
cpu0_L1I PREFETCH REQUESTED:          0 ISSUED:          0 USEFUL:          0 USELESS:          0
cpu0_L1I AVERAGE MISS LATENCY: 14.89 cycles
cpu0_L2C TOTAL        ACCESS:    1381699 HIT:    1031619 MISS:     350080
cpu0_L2C LOAD         ACCESS:    1123989 HIT:     815543 MISS:     308446
cpu0_L2C RFO          ACCESS:      64493 HIT:      39357 MISS:      25136
cpu0_L2C PREFETCH     ACCESS:          0 HIT:          0 MISS:          0
cpu0_L2C WRITE        ACCESS:     170439 HIT:     169550 MISS:        889
cpu0_L2C TRANSLATION  ACCESS:      22778 HIT:       7169 MISS:      15609
cpu0_L2C PREFETCH REQUESTED:          0 ISSUED:          0 USEFUL:          0 USELESS:          0
cpu0_L2C AVERAGE MISS LATENCY: 444.9 cycles
cpu0_STLB TOTAL        ACCESS:     508552 HIT:     485763 MISS:      22789
cpu0_STLB LOAD         ACCESS:     508552 HIT:     485763 MISS:      22789
cpu0_STLB RFO          ACCESS:          0 HIT:          0 MISS:          0
cpu0_STLB PREFETCH     ACCESS:          0 HIT:          0 MISS:          0
cpu0_STLB WRITE        ACCESS:          0 HIT:          0 MISS:          0
cpu0_STLB TRANSLATION  ACCESS:          0 HIT:          0 MISS:          0
cpu0_STLB PREFETCH REQUESTED:          0 ISSUED:          0 USEFUL:          0 USELESS:          0
cpu0_STLB AVERAGE MISS LATENCY: 551.2 cycles

DRAM Statistics

Channel 0 RQ ROW_BUFFER_HIT:      50525
  ROW_BUFFER_MISS:     273590
 AVG DBUS CONGESTED CYCLE: 3.897
WQ ROW_BUFFER_HIT: Channel 0 
  ROW_BUFFER_MISS:       4844
  FULL:      31326
