WARNING: physical memory size is smaller than virtual memory size.

*** ChampSim Multicore Out-of-Order Simulator ***
Warmup Instructions: 50000000
Simulation Instructions: 600000000
Number of CPUs: 1
Page size: 4096

Off-chip DRAM Size: 4 GiB Channels: 1 Width: 64-bit Data Race: 3200 MT/s
Heartbeat CPU 0 instructions: 10000000 cycles: 2500061 heartbeat IPC: 4 cumulative IPC: 4 (Simulation time: 00 hr 03 min 34 sec)
Heartbeat CPU 0 instructions: 20000000 cycles: 5000061 heartbeat IPC: 4 cumulative IPC: 4 (Simulation time: 00 hr 06 min 55 sec)
Heartbeat CPU 0 instructions: 30000000 cycles: 7500061 heartbeat IPC: 4 cumulative IPC: 4 (Simulation time: 00 hr 10 min 14 sec)
Heartbeat CPU 0 instructions: 40000000 cycles: 10000061 heartbeat IPC: 4 cumulative IPC: 4 (Simulation time: 00 hr 13 min 34 sec)
Heartbeat CPU 0 instructions: 50000000 cycles: 12500061 heartbeat IPC: 4 cumulative IPC: 4 (Simulation time: 00 hr 16 min 57 sec)
Warmup finished CPU 0 instructions: 50000000 cycles: 12500062 cumulative IPC: 4 (Simulation time: 00 hr 16 min 57 sec)
Warmup complete CPU 0 instructions: 50000000 cycles: 12500062 cumulative IPC: 4 (Simulation time: 00 hr 16 min 57 sec)
Heartbeat CPU 0 instructions: 60000002 cycles: 16910711 heartbeat IPC: 2.267 cumulative IPC: 2.267 (Simulation time: 00 hr 21 min 54 sec)
Heartbeat CPU 0 instructions: 70000003 cycles: 21896385 heartbeat IPC: 2.006 cumulative IPC: 2.128 (Simulation time: 00 hr 27 min 01 sec)
Heartbeat CPU 0 instructions: 80000001 cycles: 27245595 heartbeat IPC: 1.869 cumulative IPC: 2.035 (Simulation time: 00 hr 32 min 23 sec)
Heartbeat CPU 0 instructions: 90000000 cycles: 31544084 heartbeat IPC: 2.326 cumulative IPC: 2.1 (Simulation time: 00 hr 37 min 12 sec)
Heartbeat CPU 0 instructions: 100000003 cycles: 36403206 heartbeat IPC: 2.058 cumulative IPC: 2.092 (Simulation time: 00 hr 42 min 17 sec)
Heartbeat CPU 0 instructions: 110000002 cycles: 41280710 heartbeat IPC: 2.05 cumulative IPC: 2.085 (Simulation time: 00 hr 47 min 22 sec)
Heartbeat CPU 0 instructions: 120000001 cycles: 46277013 heartbeat IPC: 2.001 cumulative IPC: 2.072 (Simulation time: 00 hr 52 min 32 sec)
Heartbeat CPU 0 instructions: 130000003 cycles: 50847689 heartbeat IPC: 2.188 cumulative IPC: 2.086 (Simulation time: 00 hr 57 min 33 sec)
Heartbeat CPU 0 instructions: 140000002 cycles: 55740962 heartbeat IPC: 2.044 cumulative IPC: 2.081 (Simulation time: 01 hr 02 min 41 sec)
Heartbeat CPU 0 instructions: 150000001 cycles: 60412379 heartbeat IPC: 2.141 cumulative IPC: 2.087 (Simulation time: 01 hr 07 min 36 sec)
Heartbeat CPU 0 instructions: 160000000 cycles: 65052851 heartbeat IPC: 2.155 cumulative IPC: 2.093 (Simulation time: 01 hr 12 min 37 sec)
Heartbeat CPU 0 instructions: 170000000 cycles: 70389352 heartbeat IPC: 1.874 cumulative IPC: 2.073 (Simulation time: 01 hr 18 min 02 sec)
Heartbeat CPU 0 instructions: 180000001 cycles: 76110957 heartbeat IPC: 1.748 cumulative IPC: 2.044 (Simulation time: 01 hr 23 min 40 sec)
Heartbeat CPU 0 instructions: 190000002 cycles: 80587462 heartbeat IPC: 2.234 cumulative IPC: 2.056 (Simulation time: 01 hr 28 min 40 sec)
Heartbeat CPU 0 instructions: 200000002 cycles: 85496926 heartbeat IPC: 2.037 cumulative IPC: 2.055 (Simulation time: 01 hr 33 min 50 sec)
Heartbeat CPU 0 instructions: 210000000 cycles: 90502599 heartbeat IPC: 1.998 cumulative IPC: 2.051 (Simulation time: 01 hr 38 min 56 sec)
Heartbeat CPU 0 instructions: 220000001 cycles: 95428690 heartbeat IPC: 2.03 cumulative IPC: 2.05 (Simulation time: 01 hr 44 min 04 sec)
Heartbeat CPU 0 instructions: 230000002 cycles: 100677662 heartbeat IPC: 1.905 cumulative IPC: 2.041 (Simulation time: 01 hr 49 min 25 sec)
Heartbeat CPU 0 instructions: 240000001 cycles: 105644441 heartbeat IPC: 2.013 cumulative IPC: 2.04 (Simulation time: 01 hr 54 min 40 sec)
Heartbeat CPU 0 instructions: 250000003 cycles: 110831833 heartbeat IPC: 1.928 cumulative IPC: 2.034 (Simulation time: 01 hr 59 min 55 sec)
Heartbeat CPU 0 instructions: 260000001 cycles: 115694344 heartbeat IPC: 2.057 cumulative IPC: 2.035 (Simulation time: 02 hr 05 min 06 sec)
Heartbeat CPU 0 instructions: 270000000 cycles: 123446207 heartbeat IPC: 1.29 cumulative IPC: 1.983 (Simulation time: 02 hr 12 min 04 sec)
Heartbeat CPU 0 instructions: 280000000 cycles: 136083065 heartbeat IPC: 0.7913 cumulative IPC: 1.861 (Simulation time: 02 hr 22 min 18 sec)
Heartbeat CPU 0 instructions: 290000001 cycles: 148258269 heartbeat IPC: 0.8213 cumulative IPC: 1.768 (Simulation time: 02 hr 32 min 29 sec)
Heartbeat CPU 0 instructions: 300000003 cycles: 156282333 heartbeat IPC: 1.246 cumulative IPC: 1.739 (Simulation time: 02 hr 39 min 57 sec)
Heartbeat CPU 0 instructions: 310000004 cycles: 168621848 heartbeat IPC: 0.8104 cumulative IPC: 1.665 (Simulation time: 02 hr 50 min 14 sec)
Heartbeat CPU 0 instructions: 320000004 cycles: 174660097 heartbeat IPC: 1.656 cumulative IPC: 1.665 (Simulation time: 02 hr 56 min 24 sec)
Heartbeat CPU 0 instructions: 330000000 cycles: 179963070 heartbeat IPC: 1.886 cumulative IPC: 1.672 (Simulation time: 03 hr 01 min 55 sec)
Heartbeat CPU 0 instructions: 340000001 cycles: 185072184 heartbeat IPC: 1.957 cumulative IPC: 1.68 (Simulation time: 03 hr 07 min 16 sec)
Heartbeat CPU 0 instructions: 350000000 cycles: 190122383 heartbeat IPC: 1.98 cumulative IPC: 1.689 (Simulation time: 03 hr 12 min 35 sec)
Heartbeat CPU 0 instructions: 360000003 cycles: 194855926 heartbeat IPC: 2.113 cumulative IPC: 1.7 (Simulation time: 03 hr 17 min 40 sec)
Heartbeat CPU 0 instructions: 370000001 cycles: 199545679 heartbeat IPC: 2.132 cumulative IPC: 1.711 (Simulation time: 03 hr 22 min 46 sec)
Heartbeat CPU 0 instructions: 380000004 cycles: 204523625 heartbeat IPC: 2.009 cumulative IPC: 1.719 (Simulation time: 03 hr 28 min 06 sec)
Heartbeat CPU 0 instructions: 390000002 cycles: 209549590 heartbeat IPC: 1.99 cumulative IPC: 1.725 (Simulation time: 03 hr 33 min 29 sec)
Heartbeat CPU 0 instructions: 400000000 cycles: 214562491 heartbeat IPC: 1.995 cumulative IPC: 1.732 (Simulation time: 03 hr 38 min 47 sec)
Heartbeat CPU 0 instructions: 410000000 cycles: 222203361 heartbeat IPC: 1.309 cumulative IPC: 1.717 (Simulation time: 03 hr 45 min 57 sec)
Heartbeat CPU 0 instructions: 420000001 cycles: 234360712 heartbeat IPC: 0.8225 cumulative IPC: 1.668 (Simulation time: 03 hr 56 min 00 sec)
Heartbeat CPU 0 instructions: 430000000 cycles: 242474822 heartbeat IPC: 1.232 cumulative IPC: 1.652 (Simulation time: 04 hr 03 min 46 sec)
Heartbeat CPU 0 instructions: 440000002 cycles: 251227207 heartbeat IPC: 1.143 cumulative IPC: 1.634 (Simulation time: 04 hr 11 min 46 sec)
Heartbeat CPU 0 instructions: 450000000 cycles: 259137402 heartbeat IPC: 1.264 cumulative IPC: 1.622 (Simulation time: 04 hr 19 min 13 sec)
Heartbeat CPU 0 instructions: 460000002 cycles: 273249684 heartbeat IPC: 0.7086 cumulative IPC: 1.572 (Simulation time: 04 hr 30 min 37 sec)
Heartbeat CPU 0 instructions: 470000000 cycles: 284426689 heartbeat IPC: 0.8947 cumulative IPC: 1.545 (Simulation time: 04 hr 40 min 01 sec)
Heartbeat CPU 0 instructions: 480000000 cycles: 290025997 heartbeat IPC: 1.786 cumulative IPC: 1.549 (Simulation time: 04 hr 45 min 44 sec)
Heartbeat CPU 0 instructions: 490000001 cycles: 295215471 heartbeat IPC: 1.927 cumulative IPC: 1.556 (Simulation time: 04 hr 51 min 10 sec)
Heartbeat CPU 0 instructions: 500000002 cycles: 300228708 heartbeat IPC: 1.995 cumulative IPC: 1.564 (Simulation time: 04 hr 56 min 29 sec)
Heartbeat CPU 0 instructions: 510000000 cycles: 305172482 heartbeat IPC: 2.023 cumulative IPC: 1.572 (Simulation time: 05 hr 01 min 49 sec)
Heartbeat CPU 0 instructions: 520000000 cycles: 310199764 heartbeat IPC: 1.989 cumulative IPC: 1.579 (Simulation time: 05 hr 07 min 11 sec)
Heartbeat CPU 0 instructions: 530000001 cycles: 321543923 heartbeat IPC: 0.8815 cumulative IPC: 1.553 (Simulation time: 05 hr 16 min 41 sec)
Heartbeat CPU 0 instructions: 540000000 cycles: 334207346 heartbeat IPC: 0.7897 cumulative IPC: 1.523 (Simulation time: 05 hr 27 min 29 sec)
Heartbeat CPU 0 instructions: 550000002 cycles: 349375205 heartbeat IPC: 0.6593 cumulative IPC: 1.484 (Simulation time: 05 hr 39 min 50 sec)
Heartbeat CPU 0 instructions: 560000004 cycles: 354582660 heartbeat IPC: 1.92 cumulative IPC: 1.491 (Simulation time: 05 hr 45 min 41 sec)
Heartbeat CPU 0 instructions: 570000001 cycles: 358998529 heartbeat IPC: 2.265 cumulative IPC: 1.501 (Simulation time: 05 hr 50 min 56 sec)
Heartbeat CPU 0 instructions: 580000003 cycles: 363242801 heartbeat IPC: 2.356 cumulative IPC: 1.511 (Simulation time: 05 hr 56 min 04 sec)
Heartbeat CPU 0 instructions: 590000001 cycles: 368150065 heartbeat IPC: 2.038 cumulative IPC: 1.518 (Simulation time: 06 hr 01 min 47 sec)
Heartbeat CPU 0 instructions: 600000003 cycles: 372792336 heartbeat IPC: 2.154 cumulative IPC: 1.527 (Simulation time: 06 hr 07 min 32 sec)
Heartbeat CPU 0 instructions: 610000001 cycles: 377652819 heartbeat IPC: 2.057 cumulative IPC: 1.534 (Simulation time: 06 hr 12 min 45 sec)
Heartbeat CPU 0 instructions: 620000000 cycles: 382717801 heartbeat IPC: 1.974 cumulative IPC: 1.54 (Simulation time: 06 hr 18 min 17 sec)
Heartbeat CPU 0 instructions: 630000002 cycles: 386965598 heartbeat IPC: 2.354 cumulative IPC: 1.549 (Simulation time: 06 hr 23 min 23 sec)
Heartbeat CPU 0 instructions: 640000004 cycles: 392287226 heartbeat IPC: 1.879 cumulative IPC: 1.554 (Simulation time: 06 hr 28 min 56 sec)
Heartbeat CPU 0 instructions: 650000001 cycles: 397048684 heartbeat IPC: 2.1 cumulative IPC: 1.56 (Simulation time: 06 hr 34 min 05 sec)
Simulation finished CPU 0 instructions: 600000001 cycles: 384548623 cumulative IPC: 1.56 (Simulation time: 06 hr 34 min 05 sec)
Simulation complete CPU 0 instructions: 600000001 cycles: 384548623 cumulative IPC: 1.56 (Simulation time: 06 hr 34 min 05 sec)

ChampSim completed all CPUs

=== Simulation ===
CPU 0 runs traces/400.perlbench-50B.champsimtrace.xz
Region of Interest Statistics

CPU 0 cumulative IPC: 1.56 instructions: 600000001 cycles: 384548623
CPU 0 Branch Prediction Accuracy: 93.83% MPKI: 12.71 Average ROB Occupancy at Mispredict: 29.51
Branch type MPKI
BRANCH_DIRECT_JUMP: 0.0176
BRANCH_INDIRECT: 0.38
BRANCH_CONDITIONAL: 11.9
BRANCH_DIRECT_CALL: 0.0067
BRANCH_INDIRECT_CALL: 0.431
BRANCH_RETURN: 0.0161

LLC TOTAL        ACCESS:     512763 HIT:     139268 MISS:     373495
LLC LOAD         ACCESS:     377505 HIT:     100336 MISS:     277169
LLC RFO          ACCESS:      32781 HIT:       8030 MISS:      24751
LLC PREFETCH     ACCESS:          0 HIT:          0 MISS:          0
LLC WRITE        ACCESS:      84369 HIT:      29078 MISS:      55291
LLC TRANSLATION  ACCESS:      18108 HIT:       1824 MISS:      16284
LLC PREFETCH REQUESTED:          0 ISSUED:          0 USEFUL:          0 USELESS:          0
LLC AVERAGE MISS LATENCY: 485.1 cycles
cpu0_DTLB TOTAL        ACCESS:  156725849 HIT:  155424081 MISS:    1301768
cpu0_DTLB LOAD         ACCESS:  156725849 HIT:  155424081 MISS:    1301768
cpu0_DTLB RFO          ACCESS:          0 HIT:          0 MISS:          0
cpu0_DTLB PREFETCH     ACCESS:          0 HIT:          0 MISS:          0
cpu0_DTLB WRITE        ACCESS:          0 HIT:          0 MISS:          0
cpu0_DTLB TRANSLATION  ACCESS:          0 HIT:          0 MISS:          0
cpu0_DTLB PREFETCH REQUESTED:          0 ISSUED:          0 USEFUL:          0 USELESS:          0
cpu0_DTLB AVERAGE MISS LATENCY: 14.27 cycles
cpu0_ITLB TOTAL        ACCESS:    8933166 HIT:    8734328 MISS:     198838
cpu0_ITLB LOAD         ACCESS:    8933166 HIT:    8734328 MISS:     198838
cpu0_ITLB RFO          ACCESS:          0 HIT:          0 MISS:          0
cpu0_ITLB PREFETCH     ACCESS:          0 HIT:          0 MISS:          0
cpu0_ITLB WRITE        ACCESS:          0 HIT:          0 MISS:          0
cpu0_ITLB TRANSLATION  ACCESS:          0 HIT:          0 MISS:          0
cpu0_ITLB PREFETCH REQUESTED:          0 ISSUED:          0 USEFUL:          0 USELESS:          0
cpu0_ITLB AVERAGE MISS LATENCY: 3.653 cycles
cpu0_L1D TOTAL        ACCESS:  203593289 HIT:  200738590 MISS:    2854699
cpu0_L1D LOAD         ACCESS:  117917299 HIT:  115572972 MISS:    2344327
cpu0_L1D RFO          ACCESS:          0 HIT:          0 MISS:          0
cpu0_L1D PREFETCH     ACCESS:          0 HIT:          0 MISS:          0
cpu0_L1D WRITE        ACCESS:   85647451 HIT:   85163629 MISS:     483822
cpu0_L1D TRANSLATION  ACCESS:      28539 HIT:       1989 MISS:      26550
cpu0_L1D PREFETCH REQUESTED:          0 ISSUED:          0 USEFUL:          0 USELESS:          0
cpu0_L1D AVERAGE MISS LATENCY: 65.11 cycles
cpu0_L1I TOTAL        ACCESS:   10371874 HIT:    8572734 MISS:    1799140
cpu0_L1I LOAD         ACCESS:   10371874 HIT:    8572734 MISS:    1799140
cpu0_L1I RFO          ACCESS:          0 HIT:          0 MISS:          0
cpu0_L1I PREFETCH     ACCESS:          0 HIT:          0 MISS:          0
cpu0_L1I WRITE        ACCESS:          0 HIT:          0 MISS:          0
cpu0_L1I TRANSLATION  ACCESS:          0 HIT:          0 MISS:          0
cpu0_L1I PREFETCH REQUESTED:          0 ISSUED:          0 USEFUL:          0 USELESS:          0
cpu0_L1I AVERAGE MISS LATENCY: 14.31 cycles
cpu0_L2C TOTAL        ACCESS:    3235364 HIT:    2806024 MISS:     429340
cpu0_L2C LOAD         ACCESS:    2711761 HIT:    2334256 MISS:     377505
cpu0_L2C RFO          ACCESS:     133692 HIT:     100911 MISS:      32781
cpu0_L2C PREFETCH     ACCESS:          0 HIT:          0 MISS:          0
cpu0_L2C WRITE        ACCESS:     363444 HIT:     362498 MISS:        946
cpu0_L2C TRANSLATION  ACCESS:      26467 HIT:       8359 MISS:      18108
cpu0_L2C PREFETCH REQUESTED:          0 ISSUED:          0 USEFUL:          0 USELESS:          0
cpu0_L2C AVERAGE MISS LATENCY: 442.7 cycles
cpu0_STLB TOTAL        ACCESS:    1009328 HIT:     982638 MISS:      26690
cpu0_STLB LOAD         ACCESS:    1009328 HIT:     982638 MISS:      26690
cpu0_STLB RFO          ACCESS:          0 HIT:          0 MISS:          0
cpu0_STLB PREFETCH     ACCESS:          0 HIT:          0 MISS:          0
cpu0_STLB WRITE        ACCESS:          0 HIT:          0 MISS:          0
cpu0_STLB TRANSLATION  ACCESS:          0 HIT:          0 MISS:          0
cpu0_STLB PREFETCH REQUESTED:          0 ISSUED:          0 USEFUL:          0 USELESS:          0
cpu0_STLB AVERAGE MISS LATENCY: 482.8 cycles

DRAM Statistics

Channel 0 RQ ROW_BUFFER_HIT:      45295
  ROW_BUFFER_MISS:     272712
 AVG DBUS CONGESTED CYCLE: 3.832
WQ ROW_BUFFER_HIT: Channel 0 
  ROW_BUFFER_MISS:       9470
  FULL:      49652
