WARNING: physical memory size is smaller than virtual memory size.

*** ChampSim Multicore Out-of-Order Simulator ***
Warmup Instructions: 50000000
Simulation Instructions: 600000000
Number of CPUs: 1
Page size: 4096

Off-chip DRAM Size: 4 GiB Channels: 1 Width: 64-bit Data Race: 3200 MT/s
Heartbeat CPU 0 instructions: 10000000 cycles: 2500061 heartbeat IPC: 4 cumulative IPC: 4 (Simulation time: 00 hr 03 min 22 sec)
Heartbeat CPU 0 instructions: 20000000 cycles: 5000061 heartbeat IPC: 4 cumulative IPC: 4 (Simulation time: 00 hr 06 min 45 sec)
Heartbeat CPU 0 instructions: 30000000 cycles: 7500061 heartbeat IPC: 4 cumulative IPC: 4 (Simulation time: 00 hr 10 min 06 sec)
Heartbeat CPU 0 instructions: 40000000 cycles: 10000061 heartbeat IPC: 4 cumulative IPC: 4 (Simulation time: 00 hr 13 min 27 sec)
Heartbeat CPU 0 instructions: 50000000 cycles: 12500061 heartbeat IPC: 4 cumulative IPC: 4 (Simulation time: 00 hr 16 min 52 sec)
Warmup finished CPU 0 instructions: 50000000 cycles: 12500062 cumulative IPC: 4 (Simulation time: 00 hr 16 min 52 sec)
Warmup complete CPU 0 instructions: 50000000 cycles: 12500062 cumulative IPC: 4 (Simulation time: 00 hr 16 min 52 sec)
Heartbeat CPU 0 instructions: 60000002 cycles: 16910711 heartbeat IPC: 2.267 cumulative IPC: 2.267 (Simulation time: 00 hr 21 min 49 sec)
Heartbeat CPU 0 instructions: 70000003 cycles: 21896385 heartbeat IPC: 2.006 cumulative IPC: 2.128 (Simulation time: 00 hr 27 min 00 sec)
Heartbeat CPU 0 instructions: 80000001 cycles: 27245595 heartbeat IPC: 1.869 cumulative IPC: 2.035 (Simulation time: 00 hr 32 min 25 sec)
Heartbeat CPU 0 instructions: 90000000 cycles: 31544084 heartbeat IPC: 2.326 cumulative IPC: 2.1 (Simulation time: 00 hr 37 min 20 sec)
Heartbeat CPU 0 instructions: 100000003 cycles: 36403206 heartbeat IPC: 2.058 cumulative IPC: 2.092 (Simulation time: 00 hr 42 min 29 sec)
Heartbeat CPU 0 instructions: 110000002 cycles: 41280710 heartbeat IPC: 2.05 cumulative IPC: 2.085 (Simulation time: 00 hr 47 min 38 sec)
Heartbeat CPU 0 instructions: 120000001 cycles: 46277013 heartbeat IPC: 2.001 cumulative IPC: 2.072 (Simulation time: 00 hr 52 min 54 sec)
Heartbeat CPU 0 instructions: 130000003 cycles: 50847689 heartbeat IPC: 2.188 cumulative IPC: 2.086 (Simulation time: 00 hr 58 min 05 sec)
Heartbeat CPU 0 instructions: 140000002 cycles: 55740962 heartbeat IPC: 2.044 cumulative IPC: 2.081 (Simulation time: 01 hr 03 min 15 sec)
Heartbeat CPU 0 instructions: 150000001 cycles: 60412379 heartbeat IPC: 2.141 cumulative IPC: 2.087 (Simulation time: 01 hr 08 min 18 sec)
Heartbeat CPU 0 instructions: 160000000 cycles: 65052851 heartbeat IPC: 2.155 cumulative IPC: 2.093 (Simulation time: 01 hr 13 min 19 sec)
Heartbeat CPU 0 instructions: 170000000 cycles: 70389352 heartbeat IPC: 1.874 cumulative IPC: 2.073 (Simulation time: 01 hr 18 min 40 sec)
Heartbeat CPU 0 instructions: 180000001 cycles: 76110957 heartbeat IPC: 1.748 cumulative IPC: 2.044 (Simulation time: 01 hr 24 min 18 sec)
Heartbeat CPU 0 instructions: 190000002 cycles: 80587462 heartbeat IPC: 2.234 cumulative IPC: 2.056 (Simulation time: 01 hr 29 min 16 sec)
Heartbeat CPU 0 instructions: 200000002 cycles: 85496926 heartbeat IPC: 2.037 cumulative IPC: 2.055 (Simulation time: 01 hr 34 min 25 sec)
Heartbeat CPU 0 instructions: 210000000 cycles: 90502599 heartbeat IPC: 1.998 cumulative IPC: 2.051 (Simulation time: 01 hr 39 min 40 sec)
Heartbeat CPU 0 instructions: 220000001 cycles: 95428690 heartbeat IPC: 2.03 cumulative IPC: 2.05 (Simulation time: 01 hr 44 min 50 sec)
Heartbeat CPU 0 instructions: 230000002 cycles: 100677662 heartbeat IPC: 1.905 cumulative IPC: 2.041 (Simulation time: 01 hr 50 min 14 sec)
Heartbeat CPU 0 instructions: 240000001 cycles: 105644061 heartbeat IPC: 2.014 cumulative IPC: 2.04 (Simulation time: 01 hr 55 min 28 sec)
Heartbeat CPU 0 instructions: 250000003 cycles: 110831453 heartbeat IPC: 1.928 cumulative IPC: 2.034 (Simulation time: 02 hr 00 min 42 sec)
Heartbeat CPU 0 instructions: 260000001 cycles: 115693639 heartbeat IPC: 2.057 cumulative IPC: 2.035 (Simulation time: 02 hr 05 min 51 sec)
Heartbeat CPU 0 instructions: 270000000 cycles: 123443437 heartbeat IPC: 1.29 cumulative IPC: 1.983 (Simulation time: 02 hr 12 min 53 sec)
Heartbeat CPU 0 instructions: 280000000 cycles: 135957140 heartbeat IPC: 0.7991 cumulative IPC: 1.863 (Simulation time: 02 hr 23 min 21 sec)
Heartbeat CPU 0 instructions: 290000001 cycles: 147926424 heartbeat IPC: 0.8355 cumulative IPC: 1.772 (Simulation time: 02 hr 33 min 16 sec)
Heartbeat CPU 0 instructions: 300000003 cycles: 155888493 heartbeat IPC: 1.256 cumulative IPC: 1.744 (Simulation time: 02 hr 40 min 51 sec)
Heartbeat CPU 0 instructions: 310000004 cycles: 168092920 heartbeat IPC: 0.8194 cumulative IPC: 1.671 (Simulation time: 02 hr 51 min 02 sec)
Heartbeat CPU 0 instructions: 320000004 cycles: 174107672 heartbeat IPC: 1.663 cumulative IPC: 1.671 (Simulation time: 02 hr 57 min 07 sec)
Heartbeat CPU 0 instructions: 330000000 cycles: 179407239 heartbeat IPC: 1.887 cumulative IPC: 1.678 (Simulation time: 03 hr 02 min 38 sec)
Heartbeat CPU 0 instructions: 340000001 cycles: 184512164 heartbeat IPC: 1.959 cumulative IPC: 1.686 (Simulation time: 03 hr 08 min 02 sec)
Heartbeat CPU 0 instructions: 350000000 cycles: 189580461 heartbeat IPC: 1.973 cumulative IPC: 1.694 (Simulation time: 03 hr 13 min 24 sec)
Heartbeat CPU 0 instructions: 360000003 cycles: 194329616 heartbeat IPC: 2.106 cumulative IPC: 1.705 (Simulation time: 03 hr 18 min 30 sec)
Heartbeat CPU 0 instructions: 370000001 cycles: 199026623 heartbeat IPC: 2.129 cumulative IPC: 1.716 (Simulation time: 03 hr 23 min 38 sec)
Heartbeat CPU 0 instructions: 380000004 cycles: 204001157 heartbeat IPC: 2.01 cumulative IPC: 1.723 (Simulation time: 03 hr 28 min 58 sec)
Heartbeat CPU 0 instructions: 390000002 cycles: 209002540 heartbeat IPC: 1.999 cumulative IPC: 1.73 (Simulation time: 03 hr 34 min 27 sec)
Heartbeat CPU 0 instructions: 400000000 cycles: 214007386 heartbeat IPC: 1.998 cumulative IPC: 1.737 (Simulation time: 03 hr 39 min 47 sec)
Heartbeat CPU 0 instructions: 410000000 cycles: 221567656 heartbeat IPC: 1.323 cumulative IPC: 1.722 (Simulation time: 03 hr 46 min 48 sec)
Heartbeat CPU 0 instructions: 420000001 cycles: 233472507 heartbeat IPC: 0.84 cumulative IPC: 1.674 (Simulation time: 03 hr 56 min 44 sec)
Heartbeat CPU 0 instructions: 430000000 cycles: 241508782 heartbeat IPC: 1.244 cumulative IPC: 1.659 (Simulation time: 04 hr 04 min 21 sec)
Heartbeat CPU 0 instructions: 440000002 cycles: 250101213 heartbeat IPC: 1.164 cumulative IPC: 1.641 (Simulation time: 04 hr 12 min 15 sec)
Heartbeat CPU 0 instructions: 450000000 cycles: 257877459 heartbeat IPC: 1.286 cumulative IPC: 1.63 (Simulation time: 04 hr 19 min 37 sec)
Heartbeat CPU 0 instructions: 460000002 cycles: 271639304 heartbeat IPC: 0.7266 cumulative IPC: 1.582 (Simulation time: 04 hr 30 min 44 sec)
Heartbeat CPU 0 instructions: 470000000 cycles: 282760539 heartbeat IPC: 0.8992 cumulative IPC: 1.554 (Simulation time: 04 hr 40 min 05 sec)
Heartbeat CPU 0 instructions: 480000000 cycles: 288335517 heartbeat IPC: 1.794 cumulative IPC: 1.559 (Simulation time: 04 hr 45 min 47 sec)
Heartbeat CPU 0 instructions: 490000001 cycles: 293500631 heartbeat IPC: 1.936 cumulative IPC: 1.566 (Simulation time: 04 hr 51 min 13 sec)
Heartbeat CPU 0 instructions: 500000002 cycles: 298468463 heartbeat IPC: 2.013 cumulative IPC: 1.574 (Simulation time: 04 hr 56 min 30 sec)
Heartbeat CPU 0 instructions: 510000000 cycles: 303380094 heartbeat IPC: 2.036 cumulative IPC: 1.581 (Simulation time: 05 hr 01 min 49 sec)
Heartbeat CPU 0 instructions: 520000000 cycles: 308375147 heartbeat IPC: 2.002 cumulative IPC: 1.589 (Simulation time: 05 hr 07 min 21 sec)
Heartbeat CPU 0 instructions: 530000001 cycles: 319496952 heartbeat IPC: 0.8991 cumulative IPC: 1.564 (Simulation time: 05 hr 16 min 43 sec)
Heartbeat CPU 0 instructions: 540000000 cycles: 331922889 heartbeat IPC: 0.8048 cumulative IPC: 1.534 (Simulation time: 05 hr 27 min 05 sec)
Heartbeat CPU 0 instructions: 550000002 cycles: 346843395 heartbeat IPC: 0.6702 cumulative IPC: 1.495 (Simulation time: 05 hr 38 min 50 sec)
Heartbeat CPU 0 instructions: 560000004 cycles: 351999372 heartbeat IPC: 1.939 cumulative IPC: 1.502 (Simulation time: 05 hr 44 min 15 sec)
Heartbeat CPU 0 instructions: 570000001 cycles: 356413979 heartbeat IPC: 2.265 cumulative IPC: 1.512 (Simulation time: 05 hr 49 min 16 sec)
Heartbeat CPU 0 instructions: 580000003 cycles: 360657596 heartbeat IPC: 2.356 cumulative IPC: 1.522 (Simulation time: 05 hr 54 min 07 sec)
Heartbeat CPU 0 instructions: 590000001 cycles: 365565052 heartbeat IPC: 2.038 cumulative IPC: 1.529 (Simulation time: 05 hr 59 min 20 sec)
Heartbeat CPU 0 instructions: 600000003 cycles: 370208174 heartbeat IPC: 2.154 cumulative IPC: 1.538 (Simulation time: 06 hr 04 min 28 sec)
Heartbeat CPU 0 instructions: 610000001 cycles: 375068340 heartbeat IPC: 2.058 cumulative IPC: 1.545 (Simulation time: 06 hr 09 min 44 sec)
Heartbeat CPU 0 instructions: 620000000 cycles: 380133301 heartbeat IPC: 1.974 cumulative IPC: 1.55 (Simulation time: 06 hr 15 min 02 sec)
Heartbeat CPU 0 instructions: 630000002 cycles: 384381098 heartbeat IPC: 2.354 cumulative IPC: 1.56 (Simulation time: 06 hr 19 min 56 sec)
Heartbeat CPU 0 instructions: 640000004 cycles: 389701788 heartbeat IPC: 1.879 cumulative IPC: 1.564 (Simulation time: 06 hr 25 min 26 sec)
Heartbeat CPU 0 instructions: 650000001 cycles: 394462684 heartbeat IPC: 2.1 cumulative IPC: 1.571 (Simulation time: 06 hr 30 min 38 sec)
Simulation finished CPU 0 instructions: 600000001 cycles: 381962623 cumulative IPC: 1.571 (Simulation time: 06 hr 30 min 38 sec)
Simulation complete CPU 0 instructions: 600000001 cycles: 381962623 cumulative IPC: 1.571 (Simulation time: 06 hr 30 min 38 sec)

ChampSim completed all CPUs

=== Simulation ===
CPU 0 runs traces/400.perlbench-50B.champsimtrace.xz
Region of Interest Statistics

CPU 0 cumulative IPC: 1.571 instructions: 600000001 cycles: 381962623
CPU 0 Branch Prediction Accuracy: 93.83% MPKI: 12.71 Average ROB Occupancy at Mispredict: 29.48
Branch type MPKI
BRANCH_DIRECT_JUMP: 0.0176
BRANCH_INDIRECT: 0.38
BRANCH_CONDITIONAL: 11.9
BRANCH_DIRECT_CALL: 0.0067
BRANCH_INDIRECT_CALL: 0.431
BRANCH_RETURN: 0.0161

LLC TOTAL        ACCESS:     512855 HIT:     151235 MISS:     361620
LLC LOAD         ACCESS:     377532 HIT:     103918 MISS:     273614
LLC RFO          ACCESS:      32796 HIT:      10210 MISS:      22586
LLC PREFETCH     ACCESS:          0 HIT:          0 MISS:          0
LLC WRITE        ACCESS:      84419 HIT:      35310 MISS:      49109
LLC TRANSLATION  ACCESS:      18108 HIT:       1797 MISS:      16311
LLC PREFETCH REQUESTED:          0 ISSUED:          0 USEFUL:          0 USELESS:          0
LLC AVERAGE MISS LATENCY: 482 cycles
cpu0_DTLB TOTAL        ACCESS:  156728291 HIT:  155426628 MISS:    1301663
cpu0_DTLB LOAD         ACCESS:  156728291 HIT:  155426628 MISS:    1301663
cpu0_DTLB RFO          ACCESS:          0 HIT:          0 MISS:          0
cpu0_DTLB PREFETCH     ACCESS:          0 HIT:          0 MISS:          0
cpu0_DTLB WRITE        ACCESS:          0 HIT:          0 MISS:          0
cpu0_DTLB TRANSLATION  ACCESS:          0 HIT:          0 MISS:          0
cpu0_DTLB PREFETCH REQUESTED:          0 ISSUED:          0 USEFUL:          0 USELESS:          0
cpu0_DTLB AVERAGE MISS LATENCY: 14.13 cycles
cpu0_ITLB TOTAL        ACCESS:    8933161 HIT:    8734324 MISS:     198837
cpu0_ITLB LOAD         ACCESS:    8933161 HIT:    8734324 MISS:     198837
cpu0_ITLB RFO          ACCESS:          0 HIT:          0 MISS:          0
cpu0_ITLB PREFETCH     ACCESS:          0 HIT:          0 MISS:          0
cpu0_ITLB WRITE        ACCESS:          0 HIT:          0 MISS:          0
cpu0_ITLB TRANSLATION  ACCESS:          0 HIT:          0 MISS:          0
cpu0_ITLB PREFETCH REQUESTED:          0 ISSUED:          0 USEFUL:          0 USELESS:          0
cpu0_ITLB AVERAGE MISS LATENCY: 3.647 cycles
cpu0_L1D TOTAL        ACCESS:  203596850 HIT:  200743901 MISS:    2852949
cpu0_L1D LOAD         ACCESS:  117920631 HIT:  115577516 MISS:    2343115
cpu0_L1D RFO          ACCESS:          0 HIT:          0 MISS:          0
cpu0_L1D PREFETCH     ACCESS:          0 HIT:          0 MISS:          0
cpu0_L1D WRITE        ACCESS:   85647680 HIT:   85164398 MISS:     483282
cpu0_L1D TRANSLATION  ACCESS:      28539 HIT:       1987 MISS:      26552
cpu0_L1D PREFETCH REQUESTED:          0 ISSUED:          0 USEFUL:          0 USELESS:          0
cpu0_L1D AVERAGE MISS LATENCY: 63.09 cycles
cpu0_L1I TOTAL        ACCESS:   10371844 HIT:    8572707 MISS:    1799137
cpu0_L1I LOAD         ACCESS:   10371844 HIT:    8572707 MISS:    1799137
cpu0_L1I RFO          ACCESS:          0 HIT:          0 MISS:          0
cpu0_L1I PREFETCH     ACCESS:          0 HIT:          0 MISS:          0
cpu0_L1I WRITE        ACCESS:          0 HIT:          0 MISS:          0
cpu0_L1I TRANSLATION  ACCESS:          0 HIT:          0 MISS:          0
cpu0_L1I PREFETCH REQUESTED:          0 ISSUED:          0 USEFUL:          0 USELESS:          0
cpu0_L1I AVERAGE MISS LATENCY: 13.85 cycles
cpu0_L2C TOTAL        ACCESS:    3235429 HIT:    2806047 MISS:     429382
cpu0_L2C LOAD         ACCESS:    2711745 HIT:    2334213 MISS:     377532
cpu0_L2C RFO          ACCESS:     133715 HIT:     100919 MISS:      32796
cpu0_L2C PREFETCH     ACCESS:          0 HIT:          0 MISS:          0
cpu0_L2C WRITE        ACCESS:     363500 HIT:     362554 MISS:        946
cpu0_L2C TRANSLATION  ACCESS:      26469 HIT:       8361 MISS:      18108
cpu0_L2C PREFETCH REQUESTED:          0 ISSUED:          0 USEFUL:          0 USELESS:          0
cpu0_L2C AVERAGE MISS LATENCY: 426.6 cycles
cpu0_STLB TOTAL        ACCESS:    1009298 HIT:     982607 MISS:      26691
cpu0_STLB LOAD         ACCESS:    1009298 HIT:     982607 MISS:      26691
cpu0_STLB RFO          ACCESS:          0 HIT:          0 MISS:          0
cpu0_STLB PREFETCH     ACCESS:          0 HIT:          0 MISS:          0
cpu0_STLB WRITE        ACCESS:          0 HIT:          0 MISS:          0
cpu0_STLB TRANSLATION  ACCESS:          0 HIT:          0 MISS:          0
cpu0_STLB PREFETCH REQUESTED:          0 ISSUED:          0 USEFUL:          0 USELESS:          0
cpu0_STLB AVERAGE MISS LATENCY: 475.4 cycles

DRAM Statistics

Channel 0 RQ ROW_BUFFER_HIT:      47726
  ROW_BUFFER_MISS:     264637
 AVG DBUS CONGESTED CYCLE: 3.817
WQ ROW_BUFFER_HIT: Channel 0 
  ROW_BUFFER_MISS:       9263
  FULL:      40689
