WARNING: physical memory size is smaller than virtual memory size.

*** ChampSim Multicore Out-of-Order Simulator ***
Warmup Instructions: 50000000
Simulation Instructions: 600000000
Number of CPUs: 1
Page size: 4096

Off-chip DRAM Size: 4 GiB Channels: 1 Width: 64-bit Data Race: 3200 MT/s
Heartbeat CPU 0 instructions: 10000001 cycles: 2500318 heartbeat IPC: 3.999 cumulative IPC: 3.999 (Simulation time: 00 hr 03 min 45 sec)
Heartbeat CPU 0 instructions: 20000002 cycles: 5037087 heartbeat IPC: 3.942 cumulative IPC: 3.971 (Simulation time: 00 hr 07 min 38 sec)
Heartbeat CPU 0 instructions: 30000002 cycles: 7537087 heartbeat IPC: 4 cumulative IPC: 3.98 (Simulation time: 00 hr 11 min 08 sec)
Heartbeat CPU 0 instructions: 40000002 cycles: 10037087 heartbeat IPC: 4 cumulative IPC: 3.985 (Simulation time: 00 hr 14 min 43 sec)
Heartbeat CPU 0 instructions: 50000002 cycles: 12537087 heartbeat IPC: 4 cumulative IPC: 3.988 (Simulation time: 00 hr 18 min 18 sec)
Warmup finished CPU 0 instructions: 50000002 cycles: 12537088 cumulative IPC: 3.988 (Simulation time: 00 hr 18 min 18 sec)
Warmup complete CPU 0 instructions: 50000002 cycles: 12537088 cumulative IPC: 3.988 (Simulation time: 00 hr 18 min 18 sec)
Heartbeat CPU 0 instructions: 60000000 cycles: 16975066 heartbeat IPC: 2.253 cumulative IPC: 2.253 (Simulation time: 00 hr 23 min 23 sec)
Heartbeat CPU 0 instructions: 70000002 cycles: 21129615 heartbeat IPC: 2.407 cumulative IPC: 2.328 (Simulation time: 00 hr 28 min 23 sec)
Heartbeat CPU 0 instructions: 80000001 cycles: 25646294 heartbeat IPC: 2.214 cumulative IPC: 2.288 (Simulation time: 00 hr 33 min 32 sec)
Heartbeat CPU 0 instructions: 90000003 cycles: 29605444 heartbeat IPC: 2.526 cumulative IPC: 2.344 (Simulation time: 00 hr 38 min 33 sec)
Heartbeat CPU 0 instructions: 100000000 cycles: 33731003 heartbeat IPC: 2.424 cumulative IPC: 2.359 (Simulation time: 00 hr 43 min 31 sec)
Heartbeat CPU 0 instructions: 110000000 cycles: 37865184 heartbeat IPC: 2.419 cumulative IPC: 2.369 (Simulation time: 00 hr 48 min 24 sec)
Heartbeat CPU 0 instructions: 120000001 cycles: 41842331 heartbeat IPC: 2.514 cumulative IPC: 2.389 (Simulation time: 00 hr 53 min 15 sec)
Heartbeat CPU 0 instructions: 130000001 cycles: 45595967 heartbeat IPC: 2.664 cumulative IPC: 2.42 (Simulation time: 00 hr 58 min 01 sec)
Heartbeat CPU 0 instructions: 140000001 cycles: 49778382 heartbeat IPC: 2.391 cumulative IPC: 2.417 (Simulation time: 01 hr 02 min 57 sec)
Heartbeat CPU 0 instructions: 150000001 cycles: 53951333 heartbeat IPC: 2.396 cumulative IPC: 2.415 (Simulation time: 01 hr 07 min 58 sec)
Heartbeat CPU 0 instructions: 160000004 cycles: 58215096 heartbeat IPC: 2.345 cumulative IPC: 2.408 (Simulation time: 01 hr 13 min 01 sec)
Heartbeat CPU 0 instructions: 170000001 cycles: 66850693 heartbeat IPC: 1.158 cumulative IPC: 2.209 (Simulation time: 01 hr 20 min 53 sec)
Heartbeat CPU 0 instructions: 180000004 cycles: 75854192 heartbeat IPC: 1.111 cumulative IPC: 2.053 (Simulation time: 01 hr 29 min 10 sec)
Heartbeat CPU 0 instructions: 190000001 cycles: 87106742 heartbeat IPC: 0.8887 cumulative IPC: 1.877 (Simulation time: 01 hr 38 min 47 sec)
Heartbeat CPU 0 instructions: 200000004 cycles: 91045495 heartbeat IPC: 2.539 cumulative IPC: 1.911 (Simulation time: 01 hr 43 min 38 sec)
Heartbeat CPU 0 instructions: 210000001 cycles: 94895439 heartbeat IPC: 2.597 cumulative IPC: 1.943 (Simulation time: 01 hr 48 min 25 sec)
Heartbeat CPU 0 instructions: 220000000 cycles: 98733352 heartbeat IPC: 2.606 cumulative IPC: 1.972 (Simulation time: 01 hr 53 min 11 sec)
Heartbeat CPU 0 instructions: 230000002 cycles: 103286244 heartbeat IPC: 2.196 cumulative IPC: 1.983 (Simulation time: 01 hr 58 min 17 sec)
Heartbeat CPU 0 instructions: 240000002 cycles: 107436496 heartbeat IPC: 2.409 cumulative IPC: 2.002 (Simulation time: 02 hr 03 min 26 sec)
Heartbeat CPU 0 instructions: 250000000 cycles: 111707495 heartbeat IPC: 2.341 cumulative IPC: 2.017 (Simulation time: 02 hr 08 min 28 sec)
Heartbeat CPU 0 instructions: 260000000 cycles: 115798638 heartbeat IPC: 2.444 cumulative IPC: 2.034 (Simulation time: 02 hr 13 min 24 sec)
Heartbeat CPU 0 instructions: 270000002 cycles: 119679329 heartbeat IPC: 2.577 cumulative IPC: 2.053 (Simulation time: 02 hr 18 min 13 sec)
Heartbeat CPU 0 instructions: 280000002 cycles: 123813618 heartbeat IPC: 2.419 cumulative IPC: 2.067 (Simulation time: 02 hr 23 min 14 sec)
Heartbeat CPU 0 instructions: 290000002 cycles: 127701775 heartbeat IPC: 2.572 cumulative IPC: 2.084 (Simulation time: 02 hr 28 min 14 sec)
Heartbeat CPU 0 instructions: 300000003 cycles: 131575572 heartbeat IPC: 2.581 cumulative IPC: 2.1 (Simulation time: 02 hr 33 min 14 sec)
Heartbeat CPU 0 instructions: 310000001 cycles: 135733470 heartbeat IPC: 2.405 cumulative IPC: 2.11 (Simulation time: 02 hr 38 min 06 sec)
Heartbeat CPU 0 instructions: 320000003 cycles: 139812949 heartbeat IPC: 2.451 cumulative IPC: 2.121 (Simulation time: 02 hr 43 min 02 sec)
Heartbeat CPU 0 instructions: 330000003 cycles: 144173741 heartbeat IPC: 2.293 cumulative IPC: 2.127 (Simulation time: 02 hr 48 min 02 sec)
Heartbeat CPU 0 instructions: 340000000 cycles: 153091981 heartbeat IPC: 1.121 cumulative IPC: 2.063 (Simulation time: 02 hr 56 min 11 sec)
Heartbeat CPU 0 instructions: 350000000 cycles: 162637133 heartbeat IPC: 1.048 cumulative IPC: 1.999 (Simulation time: 03 hr 04 min 46 sec)
Heartbeat CPU 0 instructions: 360000004 cycles: 173734743 heartbeat IPC: 0.9011 cumulative IPC: 1.923 (Simulation time: 03 hr 14 min 14 sec)
Heartbeat CPU 0 instructions: 370000001 cycles: 177233035 heartbeat IPC: 2.859 cumulative IPC: 1.943 (Simulation time: 03 hr 18 min 50 sec)
Heartbeat CPU 0 instructions: 380000001 cycles: 180667087 heartbeat IPC: 2.912 cumulative IPC: 1.963 (Simulation time: 03 hr 23 min 27 sec)
Heartbeat CPU 0 instructions: 390000004 cycles: 184260765 heartbeat IPC: 2.783 cumulative IPC: 1.98 (Simulation time: 03 hr 28 min 06 sec)
Heartbeat CPU 0 instructions: 400000004 cycles: 187825872 heartbeat IPC: 2.805 cumulative IPC: 1.997 (Simulation time: 03 hr 32 min 45 sec)
Heartbeat CPU 0 instructions: 410000001 cycles: 191593605 heartbeat IPC: 2.654 cumulative IPC: 2.011 (Simulation time: 03 hr 37 min 29 sec)
Heartbeat CPU 0 instructions: 420000002 cycles: 195689511 heartbeat IPC: 2.441 cumulative IPC: 2.02 (Simulation time: 03 hr 42 min 34 sec)
Heartbeat CPU 0 instructions: 430000001 cycles: 199304702 heartbeat IPC: 2.766 cumulative IPC: 2.035 (Simulation time: 03 hr 47 min 17 sec)
Heartbeat CPU 0 instructions: 440000004 cycles: 203266314 heartbeat IPC: 2.524 cumulative IPC: 2.045 (Simulation time: 03 hr 52 min 07 sec)
Heartbeat CPU 0 instructions: 450000002 cycles: 206798748 heartbeat IPC: 2.831 cumulative IPC: 2.059 (Simulation time: 03 hr 56 min 45 sec)
Heartbeat CPU 0 instructions: 460000000 cycles: 210353741 heartbeat IPC: 2.813 cumulative IPC: 2.073 (Simulation time: 04 hr 01 min 21 sec)
Heartbeat CPU 0 instructions: 470000001 cycles: 213858125 heartbeat IPC: 2.854 cumulative IPC: 2.086 (Simulation time: 04 hr 05 min 56 sec)
Heartbeat CPU 0 instructions: 480000003 cycles: 217635558 heartbeat IPC: 2.647 cumulative IPC: 2.097 (Simulation time: 04 hr 10 min 38 sec)
Heartbeat CPU 0 instructions: 490000000 cycles: 221139621 heartbeat IPC: 2.854 cumulative IPC: 2.109 (Simulation time: 04 hr 15 min 11 sec)
Heartbeat CPU 0 instructions: 500000004 cycles: 224779130 heartbeat IPC: 2.748 cumulative IPC: 2.12 (Simulation time: 04 hr 19 min 49 sec)
Heartbeat CPU 0 instructions: 510000003 cycles: 228498538 heartbeat IPC: 2.689 cumulative IPC: 2.13 (Simulation time: 04 hr 24 min 35 sec)
Heartbeat CPU 0 instructions: 520000000 cycles: 231893266 heartbeat IPC: 2.946 cumulative IPC: 2.143 (Simulation time: 04 hr 29 min 09 sec)
Heartbeat CPU 0 instructions: 530000002 cycles: 235623573 heartbeat IPC: 2.681 cumulative IPC: 2.152 (Simulation time: 04 hr 33 min 53 sec)
Heartbeat CPU 0 instructions: 540000000 cycles: 239167936 heartbeat IPC: 2.821 cumulative IPC: 2.162 (Simulation time: 04 hr 38 min 31 sec)
Heartbeat CPU 0 instructions: 550000001 cycles: 242845956 heartbeat IPC: 2.719 cumulative IPC: 2.171 (Simulation time: 04 hr 43 min 12 sec)
Heartbeat CPU 0 instructions: 560000004 cycles: 246788878 heartbeat IPC: 2.536 cumulative IPC: 2.177 (Simulation time: 04 hr 48 min 03 sec)
Heartbeat CPU 0 instructions: 570000004 cycles: 253387473 heartbeat IPC: 1.515 cumulative IPC: 2.159 (Simulation time: 04 hr 54 min 38 sec)
Heartbeat CPU 0 instructions: 580000003 cycles: 261577560 heartbeat IPC: 1.221 cumulative IPC: 2.128 (Simulation time: 05 hr 02 min 16 sec)
Heartbeat CPU 0 instructions: 590000002 cycles: 275465312 heartbeat IPC: 0.7201 cumulative IPC: 2.054 (Simulation time: 05 hr 13 min 34 sec)
Heartbeat CPU 0 instructions: 600000000 cycles: 279248464 heartbeat IPC: 2.643 cumulative IPC: 2.062 (Simulation time: 05 hr 18 min 15 sec)
Heartbeat CPU 0 instructions: 610000002 cycles: 283052371 heartbeat IPC: 2.629 cumulative IPC: 2.07 (Simulation time: 05 hr 22 min 55 sec)
Heartbeat CPU 0 instructions: 620000001 cycles: 286457908 heartbeat IPC: 2.936 cumulative IPC: 2.081 (Simulation time: 05 hr 27 min 29 sec)
Heartbeat CPU 0 instructions: 630000002 cycles: 290611329 heartbeat IPC: 2.408 cumulative IPC: 2.086 (Simulation time: 05 hr 32 min 27 sec)
Heartbeat CPU 0 instructions: 640000001 cycles: 294379126 heartbeat IPC: 2.654 cumulative IPC: 2.093 (Simulation time: 05 hr 37 min 10 sec)
Heartbeat CPU 0 instructions: 650000000 cycles: 298052057 heartbeat IPC: 2.723 cumulative IPC: 2.101 (Simulation time: 05 hr 41 min 51 sec)
Simulation finished CPU 0 instructions: 600000001 cycles: 285514971 cumulative IPC: 2.101 (Simulation time: 05 hr 41 min 51 sec)
Simulation complete CPU 0 instructions: 600000001 cycles: 285514971 cumulative IPC: 2.101 (Simulation time: 05 hr 41 min 51 sec)

ChampSim completed all CPUs

=== Simulation ===
CPU 0 runs traces/400.perlbench-41B.champsimtrace.xz
Region of Interest Statistics

CPU 0 cumulative IPC: 2.101 instructions: 600000001 cycles: 285514971
CPU 0 Branch Prediction Accuracy: 96.64% MPKI: 6.948 Average ROB Occupancy at Mispredict: 45.73
Branch type MPKI
BRANCH_DIRECT_JUMP: 0.0123
BRANCH_INDIRECT: 0.323
BRANCH_CONDITIONAL: 6.4
BRANCH_DIRECT_CALL: 0.0043
BRANCH_INDIRECT_CALL: 0.2
BRANCH_RETURN: 0.00828

LLC TOTAL        ACCESS:     415119 HIT:     180109 MISS:     235010
LLC LOAD         ACCESS:     309686 HIT:     129832 MISS:     179854
LLC RFO          ACCESS:      25150 HIT:      11020 MISS:      14130
LLC PREFETCH     ACCESS:          0 HIT:          0 MISS:          0
LLC WRITE        ACCESS:      64533 HIT:      35898 MISS:      28635
LLC TRANSLATION  ACCESS:      15750 HIT:       3359 MISS:      12391
LLC PREFETCH REQUESTED:          0 ISSUED:          0 USEFUL:          0 USELESS:          0
LLC AVERAGE MISS LATENCY: 473.6 cycles
cpu0_DTLB TOTAL        ACCESS:  141350917 HIT:  140676140 MISS:     674777
cpu0_DTLB LOAD         ACCESS:  141350917 HIT:  140676140 MISS:     674777
cpu0_DTLB RFO          ACCESS:          0 HIT:          0 MISS:          0
cpu0_DTLB PREFETCH     ACCESS:          0 HIT:          0 MISS:          0
cpu0_DTLB WRITE        ACCESS:          0 HIT:          0 MISS:          0
cpu0_DTLB TRANSLATION  ACCESS:          0 HIT:          0 MISS:          0
cpu0_DTLB PREFETCH REQUESTED:          0 ISSUED:          0 USEFUL:          0 USELESS:          0
cpu0_DTLB AVERAGE MISS LATENCY: 16.09 cycles
cpu0_ITLB TOTAL        ACCESS:    4856797 HIT:    4810080 MISS:      46717
cpu0_ITLB LOAD         ACCESS:    4856797 HIT:    4810080 MISS:      46717
cpu0_ITLB RFO          ACCESS:          0 HIT:          0 MISS:          0
cpu0_ITLB PREFETCH     ACCESS:          0 HIT:          0 MISS:          0
cpu0_ITLB WRITE        ACCESS:          0 HIT:          0 MISS:          0
cpu0_ITLB TRANSLATION  ACCESS:          0 HIT:          0 MISS:          0
cpu0_ITLB PREFETCH REQUESTED:          0 ISSUED:          0 USEFUL:          0 USELESS:          0
cpu0_ITLB AVERAGE MISS LATENCY: 8.299 cycles
cpu0_L1D TOTAL        ACCESS:  188003894 HIT:  186698440 MISS:    1305454
cpu0_L1D LOAD         ACCESS:  104677837 HIT:  103671959 MISS:    1005878
cpu0_L1D RFO          ACCESS:          0 HIT:          0 MISS:          0
cpu0_L1D PREFETCH     ACCESS:          0 HIT:          0 MISS:          0
cpu0_L1D WRITE        ACCESS:   83301591 HIT:   83024878 MISS:     276713
cpu0_L1D TRANSLATION  ACCESS:      24466 HIT:       1603 MISS:      22863
cpu0_L1D PREFETCH REQUESTED:          0 ISSUED:          0 USEFUL:          0 USELESS:          0
cpu0_L1D AVERAGE MISS LATENCY: 91.35 cycles
cpu0_L1I TOTAL        ACCESS:    5594521 HIT:    4874254 MISS:     720267
cpu0_L1I LOAD         ACCESS:    5594521 HIT:    4874254 MISS:     720267
cpu0_L1I RFO          ACCESS:          0 HIT:          0 MISS:          0
cpu0_L1I PREFETCH     ACCESS:          0 HIT:          0 MISS:          0
cpu0_L1I WRITE        ACCESS:          0 HIT:          0 MISS:          0
cpu0_L1I TRANSLATION  ACCESS:          0 HIT:          0 MISS:          0
cpu0_L1I PREFETCH REQUESTED:          0 ISSUED:          0 USEFUL:          0 USELESS:          0
cpu0_L1I AVERAGE MISS LATENCY: 10.56 cycles
cpu0_L2C TOTAL        ACCESS:    1381103 HIT:    1029653 MISS:     351450
cpu0_L2C LOAD         ACCESS:    1125013 HIT:     815326 MISS:     309687
cpu0_L2C RFO          ACCESS:      63620 HIT:      38470 MISS:      25150
cpu0_L2C PREFETCH     ACCESS:          0 HIT:          0 MISS:          0
cpu0_L2C WRITE        ACCESS:     169667 HIT:     168804 MISS:        863
cpu0_L2C TRANSLATION  ACCESS:      22803 HIT:       7053 MISS:      15750
cpu0_L2C PREFETCH REQUESTED:          0 ISSUED:          0 USEFUL:          0 USELESS:          0
cpu0_L2C AVERAGE MISS LATENCY: 337.2 cycles
cpu0_STLB TOTAL        ACCESS:     505867 HIT:     483076 MISS:      22791
cpu0_STLB LOAD         ACCESS:     505867 HIT:     483076 MISS:      22791
cpu0_STLB RFO          ACCESS:          0 HIT:          0 MISS:          0
cpu0_STLB PREFETCH     ACCESS:          0 HIT:          0 MISS:          0
cpu0_STLB WRITE        ACCESS:          0 HIT:          0 MISS:          0
cpu0_STLB TRANSLATION  ACCESS:          0 HIT:          0 MISS:          0
cpu0_STLB PREFETCH REQUESTED:          0 ISSUED:          0 USEFUL:          0 USELESS:          0
cpu0_STLB AVERAGE MISS LATENCY: 349.9 cycles

DRAM Statistics

Channel 0 RQ ROW_BUFFER_HIT:      30597
  ROW_BUFFER_MISS:     175769
 AVG DBUS CONGESTED CYCLE: 3.77
WQ ROW_BUFFER_HIT: Channel 0 
  ROW_BUFFER_MISS:       8374
  FULL:      22396
