WARNING: physical memory size is smaller than virtual memory size.

*** ChampSim Multicore Out-of-Order Simulator ***
Warmup Instructions: 50000000
Simulation Instructions: 600000000
Number of CPUs: 1
Page size: 4096

Off-chip DRAM Size: 4 GiB Channels: 1 Width: 64-bit Data Race: 3200 MT/s
Heartbeat CPU 0 instructions: 10000001 cycles: 2500318 heartbeat IPC: 3.999 cumulative IPC: 3.999 (Simulation time: 00 hr 03 min 51 sec)
Heartbeat CPU 0 instructions: 20000002 cycles: 5037087 heartbeat IPC: 3.942 cumulative IPC: 3.971 (Simulation time: 00 hr 07 min 39 sec)
Heartbeat CPU 0 instructions: 30000002 cycles: 7537087 heartbeat IPC: 4 cumulative IPC: 3.98 (Simulation time: 00 hr 11 min 02 sec)
Heartbeat CPU 0 instructions: 40000002 cycles: 10037087 heartbeat IPC: 4 cumulative IPC: 3.985 (Simulation time: 00 hr 14 min 31 sec)
Heartbeat CPU 0 instructions: 50000002 cycles: 12537087 heartbeat IPC: 4 cumulative IPC: 3.988 (Simulation time: 00 hr 18 min 09 sec)
Warmup finished CPU 0 instructions: 50000002 cycles: 12537088 cumulative IPC: 3.988 (Simulation time: 00 hr 18 min 09 sec)
Warmup complete CPU 0 instructions: 50000002 cycles: 12537088 cumulative IPC: 3.988 (Simulation time: 00 hr 18 min 09 sec)
Heartbeat CPU 0 instructions: 60000000 cycles: 17707439 heartbeat IPC: 1.934 cumulative IPC: 1.934 (Simulation time: 00 hr 23 min 25 sec)
Heartbeat CPU 0 instructions: 70000002 cycles: 22608515 heartbeat IPC: 2.04 cumulative IPC: 1.986 (Simulation time: 00 hr 28 min 41 sec)
Heartbeat CPU 0 instructions: 80000001 cycles: 27977139 heartbeat IPC: 1.863 cumulative IPC: 1.943 (Simulation time: 00 hr 34 min 06 sec)
Heartbeat CPU 0 instructions: 90000001 cycles: 32856439 heartbeat IPC: 2.049 cumulative IPC: 1.969 (Simulation time: 00 hr 39 min 16 sec)
Heartbeat CPU 0 instructions: 100000000 cycles: 37971498 heartbeat IPC: 1.955 cumulative IPC: 1.966 (Simulation time: 00 hr 44 min 37 sec)
Heartbeat CPU 0 instructions: 110000000 cycles: 42863044 heartbeat IPC: 2.044 cumulative IPC: 1.979 (Simulation time: 00 hr 49 min 46 sec)
Heartbeat CPU 0 instructions: 120000001 cycles: 48053439 heartbeat IPC: 1.927 cumulative IPC: 1.971 (Simulation time: 00 hr 55 min 07 sec)
Heartbeat CPU 0 instructions: 130000001 cycles: 53209666 heartbeat IPC: 1.939 cumulative IPC: 1.967 (Simulation time: 01 hr 00 min 29 sec)
Heartbeat CPU 0 instructions: 140000001 cycles: 58526210 heartbeat IPC: 1.881 cumulative IPC: 1.957 (Simulation time: 01 hr 05 min 56 sec)
Heartbeat CPU 0 instructions: 150000001 cycles: 63851312 heartbeat IPC: 1.878 cumulative IPC: 1.949 (Simulation time: 01 hr 11 min 15 sec)
Heartbeat CPU 0 instructions: 160000004 cycles: 69061283 heartbeat IPC: 1.919 cumulative IPC: 1.946 (Simulation time: 01 hr 16 min 41 sec)
Heartbeat CPU 0 instructions: 170000000 cycles: 79167532 heartbeat IPC: 0.9895 cumulative IPC: 1.801 (Simulation time: 01 hr 25 min 17 sec)
Heartbeat CPU 0 instructions: 180000004 cycles: 89620827 heartbeat IPC: 0.9566 cumulative IPC: 1.686 (Simulation time: 01 hr 34 min 21 sec)
Heartbeat CPU 0 instructions: 190000001 cycles: 100178824 heartbeat IPC: 0.9471 cumulative IPC: 1.597 (Simulation time: 01 hr 43 min 19 sec)
Heartbeat CPU 0 instructions: 200000003 cycles: 104945039 heartbeat IPC: 2.098 cumulative IPC: 1.623 (Simulation time: 01 hr 48 min 30 sec)
Heartbeat CPU 0 instructions: 210000001 cycles: 109867068 heartbeat IPC: 2.032 cumulative IPC: 1.644 (Simulation time: 01 hr 53 min 43 sec)
Heartbeat CPU 0 instructions: 220000000 cycles: 114697651 heartbeat IPC: 2.07 cumulative IPC: 1.664 (Simulation time: 01 hr 58 min 52 sec)
Heartbeat CPU 0 instructions: 230000002 cycles: 120016628 heartbeat IPC: 1.88 cumulative IPC: 1.675 (Simulation time: 02 hr 04 min 16 sec)
Heartbeat CPU 0 instructions: 240000000 cycles: 124856930 heartbeat IPC: 2.066 cumulative IPC: 1.692 (Simulation time: 02 hr 09 min 28 sec)
Heartbeat CPU 0 instructions: 250000000 cycles: 130002925 heartbeat IPC: 1.943 cumulative IPC: 1.703 (Simulation time: 02 hr 14 min 46 sec)
Heartbeat CPU 0 instructions: 260000000 cycles: 135022114 heartbeat IPC: 1.992 cumulative IPC: 1.714 (Simulation time: 02 hr 20 min 03 sec)
Heartbeat CPU 0 instructions: 270000002 cycles: 139908789 heartbeat IPC: 2.046 cumulative IPC: 1.727 (Simulation time: 02 hr 25 min 14 sec)
Heartbeat CPU 0 instructions: 280000002 cycles: 144820724 heartbeat IPC: 2.036 cumulative IPC: 1.739 (Simulation time: 02 hr 30 min 25 sec)
Heartbeat CPU 0 instructions: 290000001 cycles: 150181795 heartbeat IPC: 1.865 cumulative IPC: 1.744 (Simulation time: 02 hr 35 min 54 sec)
Heartbeat CPU 0 instructions: 300000003 cycles: 155230193 heartbeat IPC: 1.981 cumulative IPC: 1.752 (Simulation time: 02 hr 41 min 13 sec)
Heartbeat CPU 0 instructions: 310000001 cycles: 160526474 heartbeat IPC: 1.888 cumulative IPC: 1.757 (Simulation time: 02 hr 46 min 34 sec)
Heartbeat CPU 0 instructions: 320000003 cycles: 165729254 heartbeat IPC: 1.922 cumulative IPC: 1.762 (Simulation time: 02 hr 51 min 55 sec)
Heartbeat CPU 0 instructions: 330000003 cycles: 171020750 heartbeat IPC: 1.89 cumulative IPC: 1.767 (Simulation time: 02 hr 57 min 19 sec)
Heartbeat CPU 0 instructions: 340000000 cycles: 181187666 heartbeat IPC: 0.9836 cumulative IPC: 1.72 (Simulation time: 03 hr 05 min 52 sec)
Heartbeat CPU 0 instructions: 350000000 cycles: 192277376 heartbeat IPC: 0.9017 cumulative IPC: 1.669 (Simulation time: 03 hr 15 min 17 sec)
Heartbeat CPU 0 instructions: 360000004 cycles: 202832376 heartbeat IPC: 0.9474 cumulative IPC: 1.629 (Simulation time: 03 hr 24 min 10 sec)
Heartbeat CPU 0 instructions: 370000000 cycles: 207241569 heartbeat IPC: 2.268 cumulative IPC: 1.644 (Simulation time: 03 hr 29 min 03 sec)
Heartbeat CPU 0 instructions: 380000001 cycles: 212162880 heartbeat IPC: 2.032 cumulative IPC: 1.653 (Simulation time: 03 hr 34 min 22 sec)
Heartbeat CPU 0 instructions: 390000002 cycles: 216985121 heartbeat IPC: 2.074 cumulative IPC: 1.663 (Simulation time: 03 hr 39 min 30 sec)
Heartbeat CPU 0 instructions: 400000004 cycles: 221921874 heartbeat IPC: 2.026 cumulative IPC: 1.672 (Simulation time: 03 hr 44 min 47 sec)
Heartbeat CPU 0 instructions: 410000000 cycles: 226646338 heartbeat IPC: 2.117 cumulative IPC: 1.681 (Simulation time: 03 hr 49 min 50 sec)
Heartbeat CPU 0 instructions: 420000000 cycles: 231779144 heartbeat IPC: 1.948 cumulative IPC: 1.688 (Simulation time: 03 hr 55 min 06 sec)
Heartbeat CPU 0 instructions: 430000001 cycles: 236240065 heartbeat IPC: 2.242 cumulative IPC: 1.699 (Simulation time: 04 hr 00 min 09 sec)
Heartbeat CPU 0 instructions: 440000000 cycles: 241586704 heartbeat IPC: 1.87 cumulative IPC: 1.703 (Simulation time: 04 hr 05 min 39 sec)
Heartbeat CPU 0 instructions: 450000002 cycles: 246254042 heartbeat IPC: 2.143 cumulative IPC: 1.711 (Simulation time: 04 hr 10 min 46 sec)
Heartbeat CPU 0 instructions: 460000000 cycles: 251041939 heartbeat IPC: 2.089 cumulative IPC: 1.719 (Simulation time: 04 hr 15 min 54 sec)
Heartbeat CPU 0 instructions: 470000000 cycles: 256016920 heartbeat IPC: 2.01 cumulative IPC: 1.725 (Simulation time: 04 hr 21 min 10 sec)
Heartbeat CPU 0 instructions: 480000003 cycles: 260804469 heartbeat IPC: 2.089 cumulative IPC: 1.732 (Simulation time: 04 hr 26 min 18 sec)
Heartbeat CPU 0 instructions: 490000000 cycles: 265414693 heartbeat IPC: 2.169 cumulative IPC: 1.74 (Simulation time: 04 hr 31 min 20 sec)
Heartbeat CPU 0 instructions: 500000000 cycles: 270434056 heartbeat IPC: 1.992 cumulative IPC: 1.745 (Simulation time: 04 hr 36 min 37 sec)
Heartbeat CPU 0 instructions: 510000003 cycles: 276045995 heartbeat IPC: 1.782 cumulative IPC: 1.746 (Simulation time: 04 hr 42 min 17 sec)
Heartbeat CPU 0 instructions: 520000001 cycles: 280734488 heartbeat IPC: 2.133 cumulative IPC: 1.752 (Simulation time: 04 hr 47 min 26 sec)
Heartbeat CPU 0 instructions: 530000002 cycles: 285868174 heartbeat IPC: 1.948 cumulative IPC: 1.756 (Simulation time: 04 hr 52 min 46 sec)
Heartbeat CPU 0 instructions: 540000000 cycles: 290984159 heartbeat IPC: 1.955 cumulative IPC: 1.76 (Simulation time: 04 hr 58 min 09 sec)
Heartbeat CPU 0 instructions: 550000001 cycles: 295790366 heartbeat IPC: 2.081 cumulative IPC: 1.765 (Simulation time: 05 hr 03 min 44 sec)
Heartbeat CPU 0 instructions: 560000000 cycles: 300998708 heartbeat IPC: 1.92 cumulative IPC: 1.768 (Simulation time: 05 hr 09 min 09 sec)
Heartbeat CPU 0 instructions: 570000004 cycles: 308089431 heartbeat IPC: 1.41 cumulative IPC: 1.759 (Simulation time: 05 hr 16 min 02 sec)
Heartbeat CPU 0 instructions: 580000003 cycles: 319597333 heartbeat IPC: 0.869 cumulative IPC: 1.726 (Simulation time: 05 hr 25 min 57 sec)
Heartbeat CPU 0 instructions: 590000002 cycles: 332610177 heartbeat IPC: 0.7685 cumulative IPC: 1.687 (Simulation time: 05 hr 36 min 50 sec)
Heartbeat CPU 0 instructions: 600000000 cycles: 337175800 heartbeat IPC: 2.19 cumulative IPC: 1.694 (Simulation time: 05 hr 42 min 06 sec)
Heartbeat CPU 0 instructions: 610000002 cycles: 341666183 heartbeat IPC: 2.227 cumulative IPC: 1.701 (Simulation time: 05 hr 47 min 28 sec)
Heartbeat CPU 0 instructions: 620000000 cycles: 346471261 heartbeat IPC: 2.081 cumulative IPC: 1.707 (Simulation time: 05 hr 52 min 43 sec)
Heartbeat CPU 0 instructions: 630000002 cycles: 351553678 heartbeat IPC: 1.968 cumulative IPC: 1.711 (Simulation time: 05 hr 58 min 08 sec)
Heartbeat CPU 0 instructions: 640000001 cycles: 356405075 heartbeat IPC: 2.061 cumulative IPC: 1.716 (Simulation time: 06 hr 03 min 09 sec)
Heartbeat CPU 0 instructions: 650000000 cycles: 360962289 heartbeat IPC: 2.194 cumulative IPC: 1.722 (Simulation time: 06 hr 07 min 44 sec)
Simulation finished CPU 0 instructions: 600000001 cycles: 348425203 cumulative IPC: 1.722 (Simulation time: 06 hr 07 min 44 sec)
Simulation complete CPU 0 instructions: 600000001 cycles: 348425203 cumulative IPC: 1.722 (Simulation time: 06 hr 07 min 44 sec)

ChampSim completed all CPUs

=== Simulation ===
CPU 0 runs traces/400.perlbench-41B.champsimtrace.xz
Region of Interest Statistics

CPU 0 cumulative IPC: 1.722 instructions: 600000001 cycles: 348425203
CPU 0 Branch Prediction Accuracy: 93.95% MPKI: 12.5 Average ROB Occupancy at Mispredict: 29.57
Branch type MPKI
BRANCH_DIRECT_JUMP: 0.0123
BRANCH_INDIRECT: 0.323
BRANCH_CONDITIONAL: 12
BRANCH_DIRECT_CALL: 0.0043
BRANCH_INDIRECT_CALL: 0.2
BRANCH_RETURN: 0.00828

LLC TOTAL        ACCESS:     465843 HIT:     190996 MISS:     274847
LLC LOAD         ACCESS:     309569 HIT:      88668 MISS:     220901
LLC RFO          ACCESS:      25091 HIT:       9283 MISS:      15808
LLC PREFETCH     ACCESS:      50854 HIT:      23677 MISS:      27177
LLC WRITE        ACCESS:      64555 HIT:      63834 MISS:        721
LLC TRANSLATION  ACCESS:      15774 HIT:       5534 MISS:      10240
LLC PREFETCH REQUESTED:      50854 ISSUED:      50854 USEFUL:      16941 USELESS:       6808
LLC AVERAGE MISS LATENCY: 570.3 cycles
cpu0_DTLB TOTAL        ACCESS:  153669852 HIT:  152993148 MISS:     676704
cpu0_DTLB LOAD         ACCESS:  153669852 HIT:  152993148 MISS:     676704
cpu0_DTLB RFO          ACCESS:          0 HIT:          0 MISS:          0
cpu0_DTLB PREFETCH     ACCESS:          0 HIT:          0 MISS:          0
cpu0_DTLB WRITE        ACCESS:          0 HIT:          0 MISS:          0
cpu0_DTLB TRANSLATION  ACCESS:          0 HIT:          0 MISS:          0
cpu0_DTLB PREFETCH REQUESTED:          0 ISSUED:          0 USEFUL:          0 USELESS:          0
cpu0_DTLB AVERAGE MISS LATENCY: 15.77 cycles
cpu0_ITLB TOTAL        ACCESS:    4836659 HIT:    4778612 MISS:      58047
cpu0_ITLB LOAD         ACCESS:    4836659 HIT:    4778612 MISS:      58047
cpu0_ITLB RFO          ACCESS:          0 HIT:          0 MISS:          0
cpu0_ITLB PREFETCH     ACCESS:          0 HIT:          0 MISS:          0
cpu0_ITLB WRITE        ACCESS:          0 HIT:          0 MISS:          0
cpu0_ITLB TRANSLATION  ACCESS:          0 HIT:          0 MISS:          0
cpu0_ITLB PREFETCH REQUESTED:          0 ISSUED:          0 USEFUL:          0 USELESS:          0
cpu0_ITLB AVERAGE MISS LATENCY: 7.545 cycles
cpu0_L1D TOTAL        ACCESS:  200294671 HIT:  198959283 MISS:    1335388
cpu0_L1D LOAD         ACCESS:  117051094 HIT:  116027779 MISS:    1023315
cpu0_L1D RFO          ACCESS:          0 HIT:          0 MISS:          0
cpu0_L1D PREFETCH     ACCESS:          0 HIT:          0 MISS:          0
cpu0_L1D WRITE        ACCESS:   83219113 HIT:   82929928 MISS:     289185
cpu0_L1D TRANSLATION  ACCESS:      24464 HIT:       1576 MISS:      22888
cpu0_L1D PREFETCH REQUESTED:          0 ISSUED:          0 USEFUL:          0 USELESS:          0
cpu0_L1D AVERAGE MISS LATENCY: 108.7 cycles
cpu0_L1I TOTAL        ACCESS:    5579028 HIT:    4816911 MISS:     762117
cpu0_L1I LOAD         ACCESS:    5579028 HIT:    4816911 MISS:     762117
cpu0_L1I RFO          ACCESS:          0 HIT:          0 MISS:          0
cpu0_L1I PREFETCH     ACCESS:          0 HIT:          0 MISS:          0
cpu0_L1I WRITE        ACCESS:          0 HIT:          0 MISS:          0
cpu0_L1I TRANSLATION  ACCESS:          0 HIT:          0 MISS:          0
cpu0_L1I PREFETCH REQUESTED:          0 ISSUED:          0 USEFUL:          0 USELESS:          0
cpu0_L1I AVERAGE MISS LATENCY: 12.35 cycles
cpu0_L2C TOTAL        ACCESS:    1382523 HIT:    1031224 MISS:     351299
cpu0_L2C LOAD         ACCESS:    1125672 HIT:     816103 MISS:     309569
cpu0_L2C RFO          ACCESS:      63908 HIT:      38817 MISS:      25091
cpu0_L2C PREFETCH     ACCESS:          0 HIT:          0 MISS:          0
cpu0_L2C WRITE        ACCESS:     170137 HIT:     169272 MISS:        865
cpu0_L2C TRANSLATION  ACCESS:      22806 HIT:       7032 MISS:      15774
cpu0_L2C PREFETCH REQUESTED:          0 ISSUED:          0 USEFUL:          0 USELESS:          0
cpu0_L2C AVERAGE MISS LATENCY: 418 cycles
cpu0_STLB TOTAL        ACCESS:     505074 HIT:     482284 MISS:      22790
cpu0_STLB LOAD         ACCESS:     505074 HIT:     482284 MISS:      22790
cpu0_STLB RFO          ACCESS:          0 HIT:          0 MISS:          0
cpu0_STLB PREFETCH     ACCESS:          0 HIT:          0 MISS:          0
cpu0_STLB WRITE        ACCESS:          0 HIT:          0 MISS:          0
cpu0_STLB TRANSLATION  ACCESS:          0 HIT:          0 MISS:          0
cpu0_STLB PREFETCH REQUESTED:          0 ISSUED:          0 USEFUL:          0 USELESS:          0
cpu0_STLB AVERAGE MISS LATENCY: 347.7 cycles

DRAM Statistics

Channel 0 RQ ROW_BUFFER_HIT:      46956
  ROW_BUFFER_MISS:     222194
 AVG DBUS CONGESTED CYCLE: 3.82
WQ ROW_BUFFER_HIT: Channel 0 
  ROW_BUFFER_MISS:       7302
  FULL:      33235
