WARNING: physical memory size is smaller than virtual memory size.

*** ChampSim Multicore Out-of-Order Simulator ***
Warmup Instructions: 50000000
Simulation Instructions: 600000000
Number of CPUs: 1
Page size: 4096

CPU 0 Tage branch predictor
Off-chip DRAM Size: 4 GiB Channels: 1 Width: 64-bit Data Race: 3200 MT/s
Heartbeat CPU 0 instructions: 10000000 cycles: 2500061 heartbeat IPC: 4 cumulative IPC: 4 (Simulation time: 00 hr 02 min 15 sec)
Heartbeat CPU 0 instructions: 20000000 cycles: 5000061 heartbeat IPC: 4 cumulative IPC: 4 (Simulation time: 00 hr 05 min 04 sec)
Heartbeat CPU 0 instructions: 30000000 cycles: 7500061 heartbeat IPC: 4 cumulative IPC: 4 (Simulation time: 00 hr 08 min 37 sec)
Heartbeat CPU 0 instructions: 40000000 cycles: 10000061 heartbeat IPC: 4 cumulative IPC: 4 (Simulation time: 00 hr 12 min 41 sec)
Heartbeat CPU 0 instructions: 50000000 cycles: 12500061 heartbeat IPC: 4 cumulative IPC: 4 (Simulation time: 00 hr 17 min 01 sec)
Warmup finished CPU 0 instructions: 50000000 cycles: 12500062 cumulative IPC: 4 (Simulation time: 00 hr 17 min 01 sec)
Warmup complete CPU 0 instructions: 50000000 cycles: 12500062 cumulative IPC: 4 (Simulation time: 00 hr 17 min 01 sec)
Heartbeat CPU 0 instructions: 60000004 cycles: 15504100 heartbeat IPC: 3.329 cumulative IPC: 3.329 (Simulation time: 00 hr 21 min 59 sec)
Heartbeat CPU 0 instructions: 70000003 cycles: 18373617 heartbeat IPC: 3.485 cumulative IPC: 3.405 (Simulation time: 00 hr 26 min 53 sec)
Heartbeat CPU 0 instructions: 80000002 cycles: 21383533 heartbeat IPC: 3.322 cumulative IPC: 3.377 (Simulation time: 00 hr 31 min 53 sec)
Heartbeat CPU 0 instructions: 90000000 cycles: 24104255 heartbeat IPC: 3.675 cumulative IPC: 3.447 (Simulation time: 00 hr 36 min 43 sec)
Heartbeat CPU 0 instructions: 100000003 cycles: 26859330 heartbeat IPC: 3.63 cumulative IPC: 3.482 (Simulation time: 00 hr 41 min 34 sec)
Heartbeat CPU 0 instructions: 110000001 cycles: 29757799 heartbeat IPC: 3.45 cumulative IPC: 3.477 (Simulation time: 00 hr 46 min 23 sec)
Heartbeat CPU 0 instructions: 120000001 cycles: 32473952 heartbeat IPC: 3.682 cumulative IPC: 3.505 (Simulation time: 00 hr 51 min 07 sec)
Heartbeat CPU 0 instructions: 130000003 cycles: 35370630 heartbeat IPC: 3.452 cumulative IPC: 3.498 (Simulation time: 00 hr 55 min 58 sec)
Heartbeat CPU 0 instructions: 140000002 cycles: 38206882 heartbeat IPC: 3.526 cumulative IPC: 3.501 (Simulation time: 01 hr 00 min 49 sec)
Heartbeat CPU 0 instructions: 150000001 cycles: 40975811 heartbeat IPC: 3.612 cumulative IPC: 3.512 (Simulation time: 01 hr 05 min 37 sec)
Heartbeat CPU 0 instructions: 160000000 cycles: 43893181 heartbeat IPC: 3.428 cumulative IPC: 3.504 (Simulation time: 01 hr 10 min 28 sec)
Heartbeat CPU 0 instructions: 170000001 cycles: 46816650 heartbeat IPC: 3.421 cumulative IPC: 3.497 (Simulation time: 01 hr 15 min 21 sec)
Heartbeat CPU 0 instructions: 180000000 cycles: 49608626 heartbeat IPC: 3.582 cumulative IPC: 3.503 (Simulation time: 01 hr 20 min 14 sec)
Heartbeat CPU 0 instructions: 190000002 cycles: 52314925 heartbeat IPC: 3.695 cumulative IPC: 3.516 (Simulation time: 01 hr 25 min 06 sec)
Heartbeat CPU 0 instructions: 200000002 cycles: 55138402 heartbeat IPC: 3.542 cumulative IPC: 3.518 (Simulation time: 01 hr 29 min 54 sec)
Heartbeat CPU 0 instructions: 210000000 cycles: 58028965 heartbeat IPC: 3.46 cumulative IPC: 3.514 (Simulation time: 01 hr 34 min 45 sec)
Heartbeat CPU 0 instructions: 220000001 cycles: 60777967 heartbeat IPC: 3.638 cumulative IPC: 3.521 (Simulation time: 01 hr 39 min 36 sec)
Heartbeat CPU 0 instructions: 230000002 cycles: 63664714 heartbeat IPC: 3.464 cumulative IPC: 3.518 (Simulation time: 01 hr 44 min 30 sec)
Heartbeat CPU 0 instructions: 240000004 cycles: 66615750 heartbeat IPC: 3.389 cumulative IPC: 3.511 (Simulation time: 01 hr 49 min 27 sec)
Heartbeat CPU 0 instructions: 250000003 cycles: 69505709 heartbeat IPC: 3.46 cumulative IPC: 3.508 (Simulation time: 01 hr 54 min 19 sec)
Heartbeat CPU 0 instructions: 260000001 cycles: 72289223 heartbeat IPC: 3.593 cumulative IPC: 3.512 (Simulation time: 01 hr 59 min 04 sec)
Heartbeat CPU 0 instructions: 270000002 cycles: 78067603 heartbeat IPC: 1.731 cumulative IPC: 3.355 (Simulation time: 02 hr 05 min 56 sec)
Heartbeat CPU 0 instructions: 280000000 cycles: 87528565 heartbeat IPC: 1.057 cumulative IPC: 3.066 (Simulation time: 02 hr 15 min 21 sec)
Heartbeat CPU 0 instructions: 290000000 cycles: 95343887 heartbeat IPC: 1.28 cumulative IPC: 2.897 (Simulation time: 02 hr 23 min 48 sec)
Heartbeat CPU 0 instructions: 300000003 cycles: 100520345 heartbeat IPC: 1.932 cumulative IPC: 2.84 (Simulation time: 02 hr 30 min 36 sec)
Heartbeat CPU 0 instructions: 310000001 cycles: 108663717 heartbeat IPC: 1.228 cumulative IPC: 2.704 (Simulation time: 02 hr 39 min 28 sec)
Heartbeat CPU 0 instructions: 320000004 cycles: 112419585 heartbeat IPC: 2.663 cumulative IPC: 2.702 (Simulation time: 02 hr 45 min 16 sec)
Heartbeat CPU 0 instructions: 330000000 cycles: 115563489 heartbeat IPC: 3.181 cumulative IPC: 2.717 (Simulation time: 02 hr 50 min 26 sec)
Heartbeat CPU 0 instructions: 340000001 cycles: 118700293 heartbeat IPC: 3.188 cumulative IPC: 2.731 (Simulation time: 02 hr 55 min 38 sec)
Heartbeat CPU 0 instructions: 350000000 cycles: 122024387 heartbeat IPC: 3.008 cumulative IPC: 2.739 (Simulation time: 03 hr 00 min 58 sec)
Heartbeat CPU 0 instructions: 360000004 cycles: 125160535 heartbeat IPC: 3.189 cumulative IPC: 2.752 (Simulation time: 03 hr 06 min 10 sec)
Heartbeat CPU 0 instructions: 370000001 cycles: 128253602 heartbeat IPC: 3.233 cumulative IPC: 2.764 (Simulation time: 03 hr 11 min 20 sec)
Heartbeat CPU 0 instructions: 380000004 cycles: 131359358 heartbeat IPC: 3.22 cumulative IPC: 2.776 (Simulation time: 03 hr 16 min 32 sec)
Heartbeat CPU 0 instructions: 390000002 cycles: 134618348 heartbeat IPC: 3.068 cumulative IPC: 2.784 (Simulation time: 03 hr 21 min 50 sec)
Heartbeat CPU 0 instructions: 400000000 cycles: 137910700 heartbeat IPC: 3.037 cumulative IPC: 2.791 (Simulation time: 03 hr 27 min 09 sec)
Heartbeat CPU 0 instructions: 410000000 cycles: 144062161 heartbeat IPC: 1.626 cumulative IPC: 2.736 (Simulation time: 03 hr 34 min 21 sec)
Heartbeat CPU 0 instructions: 420000003 cycles: 152908728 heartbeat IPC: 1.13 cumulative IPC: 2.635 (Simulation time: 03 hr 43 min 36 sec)
Heartbeat CPU 0 instructions: 430000004 cycles: 158330072 heartbeat IPC: 1.845 cumulative IPC: 2.606 (Simulation time: 03 hr 50 min 41 sec)
Heartbeat CPU 0 instructions: 440000004 cycles: 163587518 heartbeat IPC: 1.902 cumulative IPC: 2.581 (Simulation time: 03 hr 57 min 35 sec)
Heartbeat CPU 0 instructions: 450000000 cycles: 168354611 heartbeat IPC: 2.098 cumulative IPC: 2.566 (Simulation time: 04 hr 04 min 05 sec)
Heartbeat CPU 0 instructions: 460000002 cycles: 176591763 heartbeat IPC: 1.214 cumulative IPC: 2.499 (Simulation time: 04 hr 12 min 52 sec)
Heartbeat CPU 0 instructions: 470000003 cycles: 183886223 heartbeat IPC: 1.371 cumulative IPC: 2.451 (Simulation time: 04 hr 21 min 04 sec)
Heartbeat CPU 0 instructions: 480000000 cycles: 187284091 heartbeat IPC: 2.943 cumulative IPC: 2.46 (Simulation time: 04 hr 26 min 24 sec)
Heartbeat CPU 0 instructions: 490000001 cycles: 190898293 heartbeat IPC: 2.767 cumulative IPC: 2.466 (Simulation time: 04 hr 31 min 56 sec)
Heartbeat CPU 0 instructions: 500000002 cycles: 194396160 heartbeat IPC: 2.859 cumulative IPC: 2.474 (Simulation time: 04 hr 37 min 24 sec)
Heartbeat CPU 0 instructions: 510000000 cycles: 197836785 heartbeat IPC: 2.906 cumulative IPC: 2.482 (Simulation time: 04 hr 42 min 51 sec)
Heartbeat CPU 0 instructions: 520000000 cycles: 201306760 heartbeat IPC: 2.882 cumulative IPC: 2.489 (Simulation time: 04 hr 48 min 18 sec)
Heartbeat CPU 0 instructions: 530000001 cycles: 210480012 heartbeat IPC: 1.09 cumulative IPC: 2.424 (Simulation time: 04 hr 57 min 31 sec)
Heartbeat CPU 0 instructions: 540000000 cycles: 219066874 heartbeat IPC: 1.165 cumulative IPC: 2.372 (Simulation time: 05 hr 06 min 33 sec)
Heartbeat CPU 0 instructions: 550000004 cycles: 228988489 heartbeat IPC: 1.008 cumulative IPC: 2.31 (Simulation time: 05 hr 16 min 33 sec)
Heartbeat CPU 0 instructions: 560000004 cycles: 232544030 heartbeat IPC: 2.813 cumulative IPC: 2.318 (Simulation time: 05 hr 21 min 56 sec)
Heartbeat CPU 0 instructions: 570000002 cycles: 235363820 heartbeat IPC: 3.546 cumulative IPC: 2.333 (Simulation time: 05 hr 26 min 54 sec)
Heartbeat CPU 0 instructions: 580000000 cycles: 238287548 heartbeat IPC: 3.42 cumulative IPC: 2.347 (Simulation time: 05 hr 31 min 52 sec)
Heartbeat CPU 0 instructions: 590000001 cycles: 241212415 heartbeat IPC: 3.419 cumulative IPC: 2.361 (Simulation time: 05 hr 37 min 04 sec)
Heartbeat CPU 0 instructions: 600000003 cycles: 243904551 heartbeat IPC: 3.715 cumulative IPC: 2.377 (Simulation time: 05 hr 42 min 26 sec)
Heartbeat CPU 0 instructions: 610000001 cycles: 246767680 heartbeat IPC: 3.493 cumulative IPC: 2.39 (Simulation time: 05 hr 47 min 40 sec)
Heartbeat CPU 0 instructions: 620000004 cycles: 249720659 heartbeat IPC: 3.386 cumulative IPC: 2.403 (Simulation time: 05 hr 52 min 44 sec)
Heartbeat CPU 0 instructions: 630000002 cycles: 252530921 heartbeat IPC: 3.558 cumulative IPC: 2.416 (Simulation time: 05 hr 58 min 00 sec)
Heartbeat CPU 0 instructions: 640000004 cycles: 255576647 heartbeat IPC: 3.283 cumulative IPC: 2.427 (Simulation time: 06 hr 03 min 17 sec)
Heartbeat CPU 0 instructions: 650000001 cycles: 258289128 heartbeat IPC: 3.687 cumulative IPC: 2.441 (Simulation time: 06 hr 08 min 30 sec)
Simulation finished CPU 0 instructions: 600000001 cycles: 245789067 cumulative IPC: 2.441 (Simulation time: 06 hr 08 min 30 sec)
Simulation complete CPU 0 instructions: 600000001 cycles: 245789067 cumulative IPC: 2.441 (Simulation time: 06 hr 08 min 30 sec)

ChampSim completed all CPUs

=== Simulation ===
CPU 0 runs traces/400.perlbench-50B.champsimtrace.xz
Region of Interest Statistics

CPU 0 cumulative IPC: 2.441 instructions: 600000001 cycles: 245789067
CPU 0 Branch Prediction Accuracy: 99.01% MPKI: 2.04 Average ROB Occupancy at Mispredict: 94.12
Branch type MPKI
BRANCH_DIRECT_JUMP: 0.0176
BRANCH_INDIRECT: 0.38
BRANCH_CONDITIONAL: 1.19
BRANCH_DIRECT_CALL: 0.0067
BRANCH_INDIRECT_CALL: 0.431
BRANCH_RETURN: 0.0161

LLC TOTAL        ACCESS:     565155 HIT:     233577 MISS:     331578
LLC LOAD         ACCESS:     376084 HIT:     113580 MISS:     262504
LLC RFO          ACCESS:      32771 HIT:      12464 MISS:      20307
LLC PREFETCH     ACCESS:      54334 HIT:      25385 MISS:      28949
LLC WRITE        ACCESS:      83747 HIT:      76373 MISS:       7374
LLC TRANSLATION  ACCESS:      18219 HIT:       5775 MISS:      12444
LLC PREFETCH REQUESTED:      54334 ISSUED:      54334 USEFUL:      17409 USELESS:       7594
LLC AVERAGE MISS LATENCY: 601.3 cycles
cpu0_DTLB TOTAL        ACCESS:  133176852 HIT:  131827158 MISS:    1349694
cpu0_DTLB LOAD         ACCESS:  133176852 HIT:  131827158 MISS:    1349694
cpu0_DTLB RFO          ACCESS:          0 HIT:          0 MISS:          0
cpu0_DTLB PREFETCH     ACCESS:          0 HIT:          0 MISS:          0
cpu0_DTLB WRITE        ACCESS:          0 HIT:          0 MISS:          0
cpu0_DTLB TRANSLATION  ACCESS:          0 HIT:          0 MISS:          0
cpu0_DTLB PREFETCH REQUESTED:          0 ISSUED:          0 USEFUL:          0 USELESS:          0
cpu0_DTLB AVERAGE MISS LATENCY: 12.05 cycles
cpu0_ITLB TOTAL        ACCESS:    9000206 HIT:    8789809 MISS:     210397
cpu0_ITLB LOAD         ACCESS:    9000206 HIT:    8789809 MISS:     210397
cpu0_ITLB RFO          ACCESS:          0 HIT:          0 MISS:          0
cpu0_ITLB PREFETCH     ACCESS:          0 HIT:          0 MISS:          0
cpu0_ITLB WRITE        ACCESS:          0 HIT:          0 MISS:          0
cpu0_ITLB TRANSLATION  ACCESS:          0 HIT:          0 MISS:          0
cpu0_ITLB PREFETCH REQUESTED:          0 ISSUED:          0 USEFUL:          0 USELESS:          0
cpu0_ITLB AVERAGE MISS LATENCY: 3.017 cycles
cpu0_L1D TOTAL        ACCESS:  178244696 HIT:  175307816 MISS:    2936880
cpu0_L1D LOAD         ACCESS:   92726452 HIT:   90315776 MISS:    2410676
cpu0_L1D RFO          ACCESS:          0 HIT:          0 MISS:          0
cpu0_L1D PREFETCH     ACCESS:          0 HIT:          0 MISS:          0
cpu0_L1D WRITE        ACCESS:   85489707 HIT:   84990037 MISS:     499670
cpu0_L1D TRANSLATION  ACCESS:      28537 HIT:       2003 MISS:      26534
cpu0_L1D PREFETCH REQUESTED:          0 ISSUED:          0 USEFUL:          0 USELESS:          0
cpu0_L1D AVERAGE MISS LATENCY: 63.02 cycles
cpu0_L1I TOTAL        ACCESS:   10519234 HIT:    8618399 MISS:    1900835
cpu0_L1I LOAD         ACCESS:   10519234 HIT:    8618399 MISS:    1900835
cpu0_L1I RFO          ACCESS:          0 HIT:          0 MISS:          0
cpu0_L1I PREFETCH     ACCESS:          0 HIT:          0 MISS:          0
cpu0_L1I WRITE        ACCESS:          0 HIT:          0 MISS:          0
cpu0_L1I TRANSLATION  ACCESS:          0 HIT:          0 MISS:          0
cpu0_L1I PREFETCH REQUESTED:          0 ISSUED:          0 USEFUL:          0 USELESS:          0
cpu0_L1I AVERAGE MISS LATENCY: 10.31 cycles
cpu0_L2C TOTAL        ACCESS:    3236135 HIT:    2808126 MISS:     428009
cpu0_L2C LOAD         ACCESS:    2709168 HIT:    2333084 MISS:     376084
cpu0_L2C RFO          ACCESS:     135534 HIT:     102763 MISS:      32771
cpu0_L2C PREFETCH     ACCESS:          0 HIT:          0 MISS:          0
cpu0_L2C WRITE        ACCESS:     364981 HIT:     364046 MISS:        935
cpu0_L2C TRANSLATION  ACCESS:      26452 HIT:       8233 MISS:      18219
cpu0_L2C PREFETCH REQUESTED:          0 ISSUED:          0 USEFUL:          0 USELESS:          0
cpu0_L2C AVERAGE MISS LATENCY: 442.7 cycles
cpu0_STLB TOTAL        ACCESS:    1009800 HIT:     983108 MISS:      26692
cpu0_STLB LOAD         ACCESS:    1009800 HIT:     983108 MISS:      26692
cpu0_STLB RFO          ACCESS:          0 HIT:          0 MISS:          0
cpu0_STLB PREFETCH     ACCESS:          0 HIT:          0 MISS:          0
cpu0_STLB WRITE        ACCESS:          0 HIT:          0 MISS:          0
cpu0_STLB TRANSLATION  ACCESS:          0 HIT:          0 MISS:          0
cpu0_STLB PREFETCH REQUESTED:          0 ISSUED:          0 USEFUL:          0 USELESS:          0
cpu0_STLB AVERAGE MISS LATENCY: 408.6 cycles

DRAM Statistics

Channel 0 RQ ROW_BUFFER_HIT:      67366
  ROW_BUFFER_MISS:     250973
 AVG DBUS CONGESTED CYCLE: 3.844
WQ ROW_BUFFER_HIT: Channel 0 
  ROW_BUFFER_MISS:       6016
  FULL:      39716
