WARNING: physical memory size is smaller than virtual memory size.

*** ChampSim Multicore Out-of-Order Simulator ***
Warmup Instructions: 50000000
Simulation Instructions: 600000000
Number of CPUs: 1
Page size: 4096

CPU 0 Tage branch predictor
Off-chip DRAM Size: 4 GiB Channels: 1 Width: 64-bit Data Race: 3200 MT/s
Heartbeat CPU 0 instructions: 10000000 cycles: 2500061 heartbeat IPC: 4 cumulative IPC: 4 (Simulation time: 00 hr 00 min 41 sec)
Heartbeat CPU 0 instructions: 20000000 cycles: 5000061 heartbeat IPC: 4 cumulative IPC: 4 (Simulation time: 00 hr 01 min 22 sec)
Heartbeat CPU 0 instructions: 30000000 cycles: 7500061 heartbeat IPC: 4 cumulative IPC: 4 (Simulation time: 00 hr 01 min 59 sec)
Heartbeat CPU 0 instructions: 40000000 cycles: 10000061 heartbeat IPC: 4 cumulative IPC: 4 (Simulation time: 00 hr 02 min 35 sec)
Heartbeat CPU 0 instructions: 50000000 cycles: 12500061 heartbeat IPC: 4 cumulative IPC: 4 (Simulation time: 00 hr 03 min 10 sec)
Warmup finished CPU 0 instructions: 50000000 cycles: 12500062 cumulative IPC: 4 (Simulation time: 00 hr 03 min 10 sec)
Warmup complete CPU 0 instructions: 50000000 cycles: 12500062 cumulative IPC: 4 (Simulation time: 00 hr 03 min 10 sec)
Heartbeat CPU 0 instructions: 60000004 cycles: 15504100 heartbeat IPC: 3.329 cumulative IPC: 3.329 (Simulation time: 00 hr 03 min 52 sec)
Heartbeat CPU 0 instructions: 70000003 cycles: 18373617 heartbeat IPC: 3.485 cumulative IPC: 3.405 (Simulation time: 00 hr 04 min 33 sec)
Heartbeat CPU 0 instructions: 80000002 cycles: 21383533 heartbeat IPC: 3.322 cumulative IPC: 3.377 (Simulation time: 00 hr 05 min 14 sec)
Heartbeat CPU 0 instructions: 90000000 cycles: 24104255 heartbeat IPC: 3.675 cumulative IPC: 3.447 (Simulation time: 00 hr 05 min 54 sec)
Heartbeat CPU 0 instructions: 100000003 cycles: 26859330 heartbeat IPC: 3.63 cumulative IPC: 3.482 (Simulation time: 00 hr 06 min 35 sec)
Heartbeat CPU 0 instructions: 110000001 cycles: 29757799 heartbeat IPC: 3.45 cumulative IPC: 3.477 (Simulation time: 00 hr 07 min 16 sec)
Heartbeat CPU 0 instructions: 120000001 cycles: 32473952 heartbeat IPC: 3.682 cumulative IPC: 3.505 (Simulation time: 00 hr 07 min 57 sec)
Heartbeat CPU 0 instructions: 130000003 cycles: 35370630 heartbeat IPC: 3.452 cumulative IPC: 3.498 (Simulation time: 00 hr 08 min 39 sec)
Heartbeat CPU 0 instructions: 140000002 cycles: 38206882 heartbeat IPC: 3.526 cumulative IPC: 3.501 (Simulation time: 00 hr 09 min 20 sec)
Heartbeat CPU 0 instructions: 150000001 cycles: 40975811 heartbeat IPC: 3.612 cumulative IPC: 3.512 (Simulation time: 00 hr 10 min 01 sec)
Heartbeat CPU 0 instructions: 160000000 cycles: 43893181 heartbeat IPC: 3.428 cumulative IPC: 3.504 (Simulation time: 00 hr 10 min 42 sec)
Heartbeat CPU 0 instructions: 170000001 cycles: 46816650 heartbeat IPC: 3.421 cumulative IPC: 3.497 (Simulation time: 00 hr 11 min 23 sec)
Heartbeat CPU 0 instructions: 180000000 cycles: 49608626 heartbeat IPC: 3.582 cumulative IPC: 3.503 (Simulation time: 00 hr 12 min 05 sec)
Heartbeat CPU 0 instructions: 190000002 cycles: 52314925 heartbeat IPC: 3.695 cumulative IPC: 3.516 (Simulation time: 00 hr 12 min 47 sec)
Heartbeat CPU 0 instructions: 200000002 cycles: 55138402 heartbeat IPC: 3.542 cumulative IPC: 3.518 (Simulation time: 00 hr 13 min 27 sec)
Heartbeat CPU 0 instructions: 210000000 cycles: 58028965 heartbeat IPC: 3.46 cumulative IPC: 3.514 (Simulation time: 00 hr 14 min 08 sec)
Heartbeat CPU 0 instructions: 220000001 cycles: 60778012 heartbeat IPC: 3.638 cumulative IPC: 3.521 (Simulation time: 00 hr 14 min 49 sec)
Heartbeat CPU 0 instructions: 230000002 cycles: 63666549 heartbeat IPC: 3.462 cumulative IPC: 3.518 (Simulation time: 00 hr 15 min 29 sec)
Heartbeat CPU 0 instructions: 240000004 cycles: 66617585 heartbeat IPC: 3.389 cumulative IPC: 3.511 (Simulation time: 00 hr 16 min 10 sec)
Heartbeat CPU 0 instructions: 250000003 cycles: 69507544 heartbeat IPC: 3.46 cumulative IPC: 3.508 (Simulation time: 00 hr 16 min 51 sec)
Heartbeat CPU 0 instructions: 260000001 cycles: 72292688 heartbeat IPC: 3.59 cumulative IPC: 3.512 (Simulation time: 00 hr 17 min 33 sec)
Heartbeat CPU 0 instructions: 270000002 cycles: 78108588 heartbeat IPC: 1.719 cumulative IPC: 3.353 (Simulation time: 00 hr 19 min 24 sec)
Heartbeat CPU 0 instructions: 280000000 cycles: 87244098 heartbeat IPC: 1.095 cumulative IPC: 3.077 (Simulation time: 00 hr 21 min 44 sec)
Heartbeat CPU 0 instructions: 290000000 cycles: 94972104 heartbeat IPC: 1.294 cumulative IPC: 2.91 (Simulation time: 00 hr 23 min 55 sec)
Heartbeat CPU 0 instructions: 300000003 cycles: 100259895 heartbeat IPC: 1.891 cumulative IPC: 2.849 (Simulation time: 00 hr 25 min 45 sec)
Heartbeat CPU 0 instructions: 310000001 cycles: 108469318 heartbeat IPC: 1.218 cumulative IPC: 2.709 (Simulation time: 00 hr 27 min 17 sec)
Heartbeat CPU 0 instructions: 320000004 cycles: 112333711 heartbeat IPC: 2.588 cumulative IPC: 2.704 (Simulation time: 00 hr 28 min 05 sec)
Heartbeat CPU 0 instructions: 330000000 cycles: 115493009 heartbeat IPC: 3.165 cumulative IPC: 2.719 (Simulation time: 00 hr 28 min 48 sec)
Heartbeat CPU 0 instructions: 340000001 cycles: 118689165 heartbeat IPC: 3.129 cumulative IPC: 2.731 (Simulation time: 00 hr 29 min 32 sec)
Heartbeat CPU 0 instructions: 350000000 cycles: 122051377 heartbeat IPC: 2.974 cumulative IPC: 2.738 (Simulation time: 00 hr 30 min 17 sec)
Heartbeat CPU 0 instructions: 360000004 cycles: 125215039 heartbeat IPC: 3.161 cumulative IPC: 2.75 (Simulation time: 00 hr 31 min 00 sec)
Heartbeat CPU 0 instructions: 370000001 cycles: 128317690 heartbeat IPC: 3.223 cumulative IPC: 2.763 (Simulation time: 00 hr 31 min 43 sec)
Heartbeat CPU 0 instructions: 380000004 cycles: 131429187 heartbeat IPC: 3.214 cumulative IPC: 2.775 (Simulation time: 00 hr 32 min 27 sec)
Heartbeat CPU 0 instructions: 390000002 cycles: 134714173 heartbeat IPC: 3.044 cumulative IPC: 2.782 (Simulation time: 00 hr 33 min 12 sec)
Heartbeat CPU 0 instructions: 400000000 cycles: 138030688 heartbeat IPC: 3.015 cumulative IPC: 2.788 (Simulation time: 00 hr 33 min 56 sec)
Heartbeat CPU 0 instructions: 410000000 cycles: 144503373 heartbeat IPC: 1.545 cumulative IPC: 2.727 (Simulation time: 00 hr 34 min 57 sec)
Heartbeat CPU 0 instructions: 420000003 cycles: 153858587 heartbeat IPC: 1.069 cumulative IPC: 2.617 (Simulation time: 00 hr 36 min 14 sec)
Heartbeat CPU 0 instructions: 430000004 cycles: 159330995 heartbeat IPC: 1.827 cumulative IPC: 2.588 (Simulation time: 00 hr 37 min 13 sec)
Heartbeat CPU 0 instructions: 440000004 cycles: 164845701 heartbeat IPC: 1.813 cumulative IPC: 2.56 (Simulation time: 00 hr 38 min 11 sec)
Heartbeat CPU 0 instructions: 450000000 cycles: 169837947 heartbeat IPC: 2.003 cumulative IPC: 2.542 (Simulation time: 00 hr 39 min 06 sec)
Heartbeat CPU 0 instructions: 460000002 cycles: 178608712 heartbeat IPC: 1.14 cumulative IPC: 2.468 (Simulation time: 00 hr 40 min 20 sec)
Heartbeat CPU 0 instructions: 470000003 cycles: 185805136 heartbeat IPC: 1.39 cumulative IPC: 2.423 (Simulation time: 00 hr 41 min 27 sec)
Heartbeat CPU 0 instructions: 480000000 cycles: 189222457 heartbeat IPC: 2.926 cumulative IPC: 2.433 (Simulation time: 00 hr 42 min 12 sec)
Heartbeat CPU 0 instructions: 490000001 cycles: 192808694 heartbeat IPC: 2.788 cumulative IPC: 2.44 (Simulation time: 00 hr 42 min 57 sec)
Heartbeat CPU 0 instructions: 500000002 cycles: 196267110 heartbeat IPC: 2.891 cumulative IPC: 2.449 (Simulation time: 00 hr 43 min 42 sec)
Heartbeat CPU 0 instructions: 510000000 cycles: 199667126 heartbeat IPC: 2.941 cumulative IPC: 2.458 (Simulation time: 00 hr 44 min 26 sec)
Heartbeat CPU 0 instructions: 520000000 cycles: 203049627 heartbeat IPC: 2.956 cumulative IPC: 2.467 (Simulation time: 00 hr 45 min 09 sec)
Heartbeat CPU 0 instructions: 530000001 cycles: 211758771 heartbeat IPC: 1.148 cumulative IPC: 2.409 (Simulation time: 00 hr 46 min 19 sec)
Heartbeat CPU 0 instructions: 540000000 cycles: 220104784 heartbeat IPC: 1.198 cumulative IPC: 2.36 (Simulation time: 00 hr 47 min 29 sec)
Heartbeat CPU 0 instructions: 550000004 cycles: 229973719 heartbeat IPC: 1.013 cumulative IPC: 2.299 (Simulation time: 00 hr 48 min 43 sec)
Heartbeat CPU 0 instructions: 560000004 cycles: 233495468 heartbeat IPC: 2.839 cumulative IPC: 2.308 (Simulation time: 00 hr 49 min 23 sec)
Heartbeat CPU 0 instructions: 570000002 cycles: 236317951 heartbeat IPC: 3.543 cumulative IPC: 2.323 (Simulation time: 00 hr 50 min 00 sec)
Heartbeat CPU 0 instructions: 580000000 cycles: 239237142 heartbeat IPC: 3.426 cumulative IPC: 2.338 (Simulation time: 00 hr 50 min 36 sec)
Heartbeat CPU 0 instructions: 590000001 cycles: 242160790 heartbeat IPC: 3.42 cumulative IPC: 2.351 (Simulation time: 00 hr 51 min 10 sec)
Heartbeat CPU 0 instructions: 600000003 cycles: 244852275 heartbeat IPC: 3.715 cumulative IPC: 2.367 (Simulation time: 00 hr 51 min 43 sec)
Heartbeat CPU 0 instructions: 610000001 cycles: 247713595 heartbeat IPC: 3.495 cumulative IPC: 2.381 (Simulation time: 00 hr 52 min 16 sec)
Heartbeat CPU 0 instructions: 620000004 cycles: 250664435 heartbeat IPC: 3.389 cumulative IPC: 2.393 (Simulation time: 00 hr 52 min 46 sec)
Heartbeat CPU 0 instructions: 630000002 cycles: 253474396 heartbeat IPC: 3.559 cumulative IPC: 2.407 (Simulation time: 00 hr 53 min 11 sec)
Heartbeat CPU 0 instructions: 640000004 cycles: 256519348 heartbeat IPC: 3.284 cumulative IPC: 2.418 (Simulation time: 00 hr 53 min 34 sec)
Heartbeat CPU 0 instructions: 650000001 cycles: 259228894 heartbeat IPC: 3.691 cumulative IPC: 2.432 (Simulation time: 00 hr 53 min 53 sec)
Simulation finished CPU 0 instructions: 600000001 cycles: 246728833 cumulative IPC: 2.432 (Simulation time: 00 hr 53 min 53 sec)
Simulation complete CPU 0 instructions: 600000001 cycles: 246728833 cumulative IPC: 2.432 (Simulation time: 00 hr 53 min 53 sec)

ChampSim completed all CPUs

=== Simulation ===
CPU 0 runs traces/400.perlbench-50B.champsimtrace.xz
Region of Interest Statistics

CPU 0 cumulative IPC: 2.432 instructions: 600000001 cycles: 246728833
CPU 0 Branch Prediction Accuracy: 99.01% MPKI: 2.04 Average ROB Occupancy at Mispredict: 94.01
Branch type MPKI
BRANCH_DIRECT_JUMP: 0.0176
BRANCH_INDIRECT: 0.38
BRANCH_CONDITIONAL: 1.19
BRANCH_DIRECT_CALL: 0.0067
BRANCH_INDIRECT_CALL: 0.431
BRANCH_RETURN: 0.0161

LLC TOTAL        ACCESS:     565793 HIT:     218209 MISS:     347584
LLC LOAD         ACCESS:     376357 HIT:     113051 MISS:     263306
LLC RFO          ACCESS:      32768 HIT:      12858 MISS:      19910
LLC PREFETCH     ACCESS:      54504 HIT:      25255 MISS:      29249
LLC WRITE        ACCESS:      83882 HIT:      62508 MISS:      21374
LLC TRANSLATION  ACCESS:      18282 HIT:       4537 MISS:      13745
LLC PREFETCH REQUESTED:      54504 ISSUED:      54504 USEFUL:      19141 USELESS:       4872
LLC AVERAGE MISS LATENCY: 568.1 cycles
cpu0_DTLB TOTAL        ACCESS:  133185057 HIT:  131834912 MISS:    1350145
cpu0_DTLB LOAD         ACCESS:  133185057 HIT:  131834912 MISS:    1350145
cpu0_DTLB RFO          ACCESS:          0 HIT:          0 MISS:          0
cpu0_DTLB PREFETCH     ACCESS:          0 HIT:          0 MISS:          0
cpu0_DTLB WRITE        ACCESS:          0 HIT:          0 MISS:          0
cpu0_DTLB TRANSLATION  ACCESS:          0 HIT:          0 MISS:          0
cpu0_DTLB PREFETCH REQUESTED:          0 ISSUED:          0 USEFUL:          0 USELESS:          0
cpu0_DTLB AVERAGE MISS LATENCY: 12.62 cycles
cpu0_ITLB TOTAL        ACCESS:    8999704 HIT:    8789307 MISS:     210397
cpu0_ITLB LOAD         ACCESS:    8999704 HIT:    8789307 MISS:     210397
cpu0_ITLB RFO          ACCESS:          0 HIT:          0 MISS:          0
cpu0_ITLB PREFETCH     ACCESS:          0 HIT:          0 MISS:          0
cpu0_ITLB WRITE        ACCESS:          0 HIT:          0 MISS:          0
cpu0_ITLB TRANSLATION  ACCESS:          0 HIT:          0 MISS:          0
cpu0_ITLB PREFETCH REQUESTED:          0 ISSUED:          0 USEFUL:          0 USELESS:          0
cpu0_ITLB AVERAGE MISS LATENCY: 3.048 cycles
cpu0_L1D TOTAL        ACCESS:  178253197 HIT:  175313486 MISS:    2939711
cpu0_L1D LOAD         ACCESS:   92734474 HIT:   90320931 MISS:    2413543
cpu0_L1D RFO          ACCESS:          0 HIT:          0 MISS:          0
cpu0_L1D PREFETCH     ACCESS:          0 HIT:          0 MISS:          0
cpu0_L1D WRITE        ACCESS:   85490189 HIT:   84990546 MISS:     499643
cpu0_L1D TRANSLATION  ACCESS:      28534 HIT:       2009 MISS:      26525
cpu0_L1D PREFETCH REQUESTED:          0 ISSUED:          0 USEFUL:          0 USELESS:          0
cpu0_L1D AVERAGE MISS LATENCY: 63 cycles
cpu0_L1I TOTAL        ACCESS:   10518799 HIT:    8618008 MISS:    1900791
cpu0_L1I LOAD         ACCESS:   10518799 HIT:    8618008 MISS:    1900791
cpu0_L1I RFO          ACCESS:          0 HIT:          0 MISS:          0
cpu0_L1I PREFETCH     ACCESS:          0 HIT:          0 MISS:          0
cpu0_L1I WRITE        ACCESS:          0 HIT:          0 MISS:          0
cpu0_L1I TRANSLATION  ACCESS:          0 HIT:          0 MISS:          0
cpu0_L1I PREFETCH REQUESTED:          0 ISSUED:          0 USEFUL:          0 USELESS:          0
cpu0_L1I AVERAGE MISS LATENCY: 9.381 cycles
cpu0_L2C TOTAL        ACCESS:    3236095 HIT:    2807749 MISS:     428346
cpu0_L2C LOAD         ACCESS:    2709149 HIT:    2332792 MISS:     376357
cpu0_L2C RFO          ACCESS:     135529 HIT:     102761 MISS:      32768
cpu0_L2C PREFETCH     ACCESS:          0 HIT:          0 MISS:          0
cpu0_L2C WRITE        ACCESS:     364971 HIT:     364032 MISS:        939
cpu0_L2C TRANSLATION  ACCESS:      26446 HIT:       8164 MISS:      18282
cpu0_L2C PREFETCH REQUESTED:          0 ISSUED:          0 USEFUL:          0 USELESS:          0
cpu0_L2C AVERAGE MISS LATENCY: 438 cycles
cpu0_STLB TOTAL        ACCESS:    1009693 HIT:     983001 MISS:      26692
cpu0_STLB LOAD         ACCESS:    1009693 HIT:     983001 MISS:      26692
cpu0_STLB RFO          ACCESS:          0 HIT:          0 MISS:          0
cpu0_STLB PREFETCH     ACCESS:          0 HIT:          0 MISS:          0
cpu0_STLB WRITE        ACCESS:          0 HIT:          0 MISS:          0
cpu0_STLB TRANSLATION  ACCESS:          0 HIT:          0 MISS:          0
cpu0_STLB PREFETCH REQUESTED:          0 ISSUED:          0 USEFUL:          0 USELESS:          0
cpu0_STLB AVERAGE MISS LATENCY: 439.8 cycles

DRAM Statistics

Channel 0 RQ ROW_BUFFER_HIT:      68062
  ROW_BUFFER_MISS:     252082
 AVG DBUS CONGESTED CYCLE: 3.835
WQ ROW_BUFFER_HIT: Channel 0 
  ROW_BUFFER_MISS:       6765
  FULL:      37829
Final OPTGen Hits: 3655
Final OPTGen Access: 6943
Final OPTGEN Hit Rate: 52.643
