WARNING: physical memory size is smaller than virtual memory size.

*** ChampSim Multicore Out-of-Order Simulator ***
Warmup Instructions: 50000000
Simulation Instructions: 600000000
Number of CPUs: 1
Page size: 4096

Off-chip DRAM Size: 4 GiB Channels: 1 Width: 64-bit Data Race: 3200 MT/s
Heartbeat CPU 0 instructions: 10000000 cycles: 2500061 heartbeat IPC: 4 cumulative IPC: 4 (Simulation time: 00 hr 03 min 00 sec)
Heartbeat CPU 0 instructions: 20000000 cycles: 5000061 heartbeat IPC: 4 cumulative IPC: 4 (Simulation time: 00 hr 06 min 25 sec)
Heartbeat CPU 0 instructions: 30000000 cycles: 7500061 heartbeat IPC: 4 cumulative IPC: 4 (Simulation time: 00 hr 10 min 04 sec)
Heartbeat CPU 0 instructions: 40000000 cycles: 10000061 heartbeat IPC: 4 cumulative IPC: 4 (Simulation time: 00 hr 13 min 28 sec)
Heartbeat CPU 0 instructions: 50000000 cycles: 12500061 heartbeat IPC: 4 cumulative IPC: 4 (Simulation time: 00 hr 16 min 58 sec)
Warmup finished CPU 0 instructions: 50000000 cycles: 12500062 cumulative IPC: 4 (Simulation time: 00 hr 16 min 58 sec)
Warmup complete CPU 0 instructions: 50000000 cycles: 12500062 cumulative IPC: 4 (Simulation time: 00 hr 16 min 58 sec)
Heartbeat CPU 0 instructions: 60000002 cycles: 16435171 heartbeat IPC: 2.541 cumulative IPC: 2.541 (Simulation time: 00 hr 21 min 45 sec)
Heartbeat CPU 0 instructions: 70000003 cycles: 20748499 heartbeat IPC: 2.318 cumulative IPC: 2.425 (Simulation time: 00 hr 26 min 42 sec)
Heartbeat CPU 0 instructions: 80000003 cycles: 25211542 heartbeat IPC: 2.241 cumulative IPC: 2.36 (Simulation time: 00 hr 31 min 45 sec)
Heartbeat CPU 0 instructions: 90000000 cycles: 28901427 heartbeat IPC: 2.71 cumulative IPC: 2.439 (Simulation time: 00 hr 36 min 20 sec)
Heartbeat CPU 0 instructions: 100000003 cycles: 32794853 heartbeat IPC: 2.568 cumulative IPC: 2.464 (Simulation time: 00 hr 41 min 03 sec)
Heartbeat CPU 0 instructions: 110000002 cycles: 36885725 heartbeat IPC: 2.444 cumulative IPC: 2.46 (Simulation time: 00 hr 45 min 53 sec)
Heartbeat CPU 0 instructions: 120000001 cycles: 40598644 heartbeat IPC: 2.693 cumulative IPC: 2.491 (Simulation time: 00 hr 50 min 35 sec)
Heartbeat CPU 0 instructions: 130000003 cycles: 44363209 heartbeat IPC: 2.656 cumulative IPC: 2.511 (Simulation time: 00 hr 55 min 15 sec)
Heartbeat CPU 0 instructions: 140000002 cycles: 48488199 heartbeat IPC: 2.424 cumulative IPC: 2.501 (Simulation time: 01 hr 00 min 09 sec)
Heartbeat CPU 0 instructions: 150000001 cycles: 52532064 heartbeat IPC: 2.473 cumulative IPC: 2.498 (Simulation time: 01 hr 04 min 58 sec)
Heartbeat CPU 0 instructions: 160000000 cycles: 56181064 heartbeat IPC: 2.74 cumulative IPC: 2.518 (Simulation time: 01 hr 09 min 34 sec)
Heartbeat CPU 0 instructions: 170000001 cycles: 60346253 heartbeat IPC: 2.401 cumulative IPC: 2.508 (Simulation time: 01 hr 14 min 25 sec)
Heartbeat CPU 0 instructions: 180000001 cycles: 63801912 heartbeat IPC: 2.894 cumulative IPC: 2.534 (Simulation time: 01 hr 19 min 16 sec)
Heartbeat CPU 0 instructions: 190000002 cycles: 67379597 heartbeat IPC: 2.795 cumulative IPC: 2.551 (Simulation time: 01 hr 24 min 00 sec)
Heartbeat CPU 0 instructions: 200000002 cycles: 71149857 heartbeat IPC: 2.652 cumulative IPC: 2.558 (Simulation time: 01 hr 28 min 45 sec)
Heartbeat CPU 0 instructions: 210000000 cycles: 74784913 heartbeat IPC: 2.751 cumulative IPC: 2.569 (Simulation time: 01 hr 33 min 31 sec)
Heartbeat CPU 0 instructions: 220000001 cycles: 78652568 heartbeat IPC: 2.586 cumulative IPC: 2.57 (Simulation time: 01 hr 38 min 09 sec)
Heartbeat CPU 0 instructions: 230000002 cycles: 82488265 heartbeat IPC: 2.607 cumulative IPC: 2.572 (Simulation time: 01 hr 42 min 29 sec)
Heartbeat CPU 0 instructions: 240000001 cycles: 86691788 heartbeat IPC: 2.379 cumulative IPC: 2.561 (Simulation time: 01 hr 47 min 01 sec)
Heartbeat CPU 0 instructions: 250000003 cycles: 91249978 heartbeat IPC: 2.194 cumulative IPC: 2.54 (Simulation time: 01 hr 51 min 40 sec)
Heartbeat CPU 0 instructions: 260000000 cycles: 95046642 heartbeat IPC: 2.634 cumulative IPC: 2.544 (Simulation time: 01 hr 56 min 00 sec)
Heartbeat CPU 0 instructions: 270000003 cycles: 101901457 heartbeat IPC: 1.459 cumulative IPC: 2.461 (Simulation time: 02 hr 02 min 11 sec)
Heartbeat CPU 0 instructions: 280000000 cycles: 113972987 heartbeat IPC: 0.8284 cumulative IPC: 2.267 (Simulation time: 02 hr 11 min 31 sec)
Heartbeat CPU 0 instructions: 290000000 cycles: 125785314 heartbeat IPC: 0.8466 cumulative IPC: 2.119 (Simulation time: 02 hr 20 min 50 sec)
Heartbeat CPU 0 instructions: 300000003 cycles: 133676325 heartbeat IPC: 1.267 cumulative IPC: 2.063 (Simulation time: 02 hr 27 min 55 sec)
Heartbeat CPU 0 instructions: 310000004 cycles: 145681324 heartbeat IPC: 0.833 cumulative IPC: 1.952 (Simulation time: 02 hr 37 min 24 sec)
Heartbeat CPU 0 instructions: 320000004 cycles: 151046154 heartbeat IPC: 1.864 cumulative IPC: 1.949 (Simulation time: 02 hr 42 min 49 sec)
Heartbeat CPU 0 instructions: 330000000 cycles: 155099865 heartbeat IPC: 2.467 cumulative IPC: 1.964 (Simulation time: 02 hr 47 min 21 sec)
Heartbeat CPU 0 instructions: 340000001 cycles: 159148309 heartbeat IPC: 2.47 cumulative IPC: 1.978 (Simulation time: 02 hr 51 min 48 sec)
Heartbeat CPU 0 instructions: 350000004 cycles: 163156485 heartbeat IPC: 2.495 cumulative IPC: 1.991 (Simulation time: 02 hr 56 min 18 sec)
Heartbeat CPU 0 instructions: 360000003 cycles: 166868868 heartbeat IPC: 2.694 cumulative IPC: 2.008 (Simulation time: 03 hr 00 min 37 sec)
Heartbeat CPU 0 instructions: 370000001 cycles: 170535149 heartbeat IPC: 2.728 cumulative IPC: 2.025 (Simulation time: 03 hr 04 min 53 sec)
Heartbeat CPU 0 instructions: 380000004 cycles: 174074196 heartbeat IPC: 2.826 cumulative IPC: 2.042 (Simulation time: 03 hr 09 min 08 sec)
Heartbeat CPU 0 instructions: 390000002 cycles: 177861707 heartbeat IPC: 2.64 cumulative IPC: 2.056 (Simulation time: 03 hr 13 min 36 sec)
Heartbeat CPU 0 instructions: 400000000 cycles: 181865362 heartbeat IPC: 2.498 cumulative IPC: 2.067 (Simulation time: 03 hr 18 min 10 sec)
Heartbeat CPU 0 instructions: 410000000 cycles: 189578847 heartbeat IPC: 1.296 cumulative IPC: 2.033 (Simulation time: 03 hr 24 min 55 sec)
Heartbeat CPU 0 instructions: 420000003 cycles: 201968910 heartbeat IPC: 0.8071 cumulative IPC: 1.953 (Simulation time: 03 hr 34 min 31 sec)
Heartbeat CPU 0 instructions: 430000000 cycles: 209830354 heartbeat IPC: 1.272 cumulative IPC: 1.926 (Simulation time: 03 hr 41 min 35 sec)
Heartbeat CPU 0 instructions: 440000004 cycles: 218201006 heartbeat IPC: 1.195 cumulative IPC: 1.896 (Simulation time: 03 hr 48 min 54 sec)
Heartbeat CPU 0 instructions: 450000000 cycles: 225973911 heartbeat IPC: 1.287 cumulative IPC: 1.874 (Simulation time: 03 hr 55 min 50 sec)
Heartbeat CPU 0 instructions: 460000002 cycles: 240117941 heartbeat IPC: 0.707 cumulative IPC: 1.801 (Simulation time: 04 hr 06 min 28 sec)
Heartbeat CPU 0 instructions: 470000003 cycles: 250745425 heartbeat IPC: 0.941 cumulative IPC: 1.763 (Simulation time: 04 hr 15 min 05 sec)
Heartbeat CPU 0 instructions: 480000003 cycles: 255055692 heartbeat IPC: 2.32 cumulative IPC: 1.773 (Simulation time: 04 hr 19 min 45 sec)
Heartbeat CPU 0 instructions: 490000001 cycles: 258941011 heartbeat IPC: 2.574 cumulative IPC: 1.785 (Simulation time: 04 hr 24 min 11 sec)
Heartbeat CPU 0 instructions: 500000002 cycles: 262785797 heartbeat IPC: 2.601 cumulative IPC: 1.798 (Simulation time: 04 hr 28 min 46 sec)
Heartbeat CPU 0 instructions: 510000000 cycles: 266338209 heartbeat IPC: 2.815 cumulative IPC: 1.812 (Simulation time: 04 hr 33 min 01 sec)
Heartbeat CPU 0 instructions: 520000000 cycles: 270169481 heartbeat IPC: 2.61 cumulative IPC: 1.824 (Simulation time: 04 hr 37 min 26 sec)
Heartbeat CPU 0 instructions: 530000001 cycles: 282297363 heartbeat IPC: 0.8245 cumulative IPC: 1.779 (Simulation time: 04 hr 46 min 48 sec)
Heartbeat CPU 0 instructions: 540000000 cycles: 295294141 heartbeat IPC: 0.7694 cumulative IPC: 1.733 (Simulation time: 04 hr 56 min 49 sec)
Heartbeat CPU 0 instructions: 550000004 cycles: 310251183 heartbeat IPC: 0.6686 cumulative IPC: 1.679 (Simulation time: 05 hr 08 min 12 sec)
Heartbeat CPU 0 instructions: 560000004 cycles: 314924595 heartbeat IPC: 2.14 cumulative IPC: 1.686 (Simulation time: 05 hr 13 min 06 sec)
Heartbeat CPU 0 instructions: 570000001 cycles: 318058435 heartbeat IPC: 3.191 cumulative IPC: 1.702 (Simulation time: 05 hr 17 min 25 sec)
Heartbeat CPU 0 instructions: 580000003 cycles: 321601547 heartbeat IPC: 2.822 cumulative IPC: 1.715 (Simulation time: 05 hr 21 min 36 sec)
Heartbeat CPU 0 instructions: 590000002 cycles: 325226834 heartbeat IPC: 2.758 cumulative IPC: 1.727 (Simulation time: 05 hr 26 min 07 sec)
Heartbeat CPU 0 instructions: 600000003 cycles: 328293010 heartbeat IPC: 3.261 cumulative IPC: 1.742 (Simulation time: 05 hr 30 min 18 sec)
Heartbeat CPU 0 instructions: 610000001 cycles: 331803742 heartbeat IPC: 2.848 cumulative IPC: 1.754 (Simulation time: 05 hr 34 min 48 sec)
Heartbeat CPU 0 instructions: 620000000 cycles: 335819073 heartbeat IPC: 2.49 cumulative IPC: 1.763 (Simulation time: 05 hr 39 min 26 sec)
Heartbeat CPU 0 instructions: 630000002 cycles: 339186511 heartbeat IPC: 2.97 cumulative IPC: 1.775 (Simulation time: 05 hr 43 min 42 sec)
Heartbeat CPU 0 instructions: 640000004 cycles: 343176180 heartbeat IPC: 2.506 cumulative IPC: 1.784 (Simulation time: 05 hr 48 min 16 sec)
Heartbeat CPU 0 instructions: 650000001 cycles: 346990443 heartbeat IPC: 2.622 cumulative IPC: 1.794 (Simulation time: 05 hr 52 min 35 sec)
Simulation finished CPU 0 instructions: 600000001 cycles: 334490382 cumulative IPC: 1.794 (Simulation time: 05 hr 52 min 35 sec)
Simulation complete CPU 0 instructions: 600000001 cycles: 334490382 cumulative IPC: 1.794 (Simulation time: 05 hr 52 min 35 sec)

ChampSim completed all CPUs

=== Simulation ===
CPU 0 runs traces/400.perlbench-50B.champsimtrace.xz
Region of Interest Statistics

CPU 0 cumulative IPC: 1.794 instructions: 600000001 cycles: 334490382
CPU 0 Branch Prediction Accuracy: 96.2% MPKI: 7.839 Average ROB Occupancy at Mispredict: 43.55
Branch type MPKI
BRANCH_DIRECT_JUMP: 0.0176
BRANCH_INDIRECT: 0.38
BRANCH_CONDITIONAL: 6.99
BRANCH_DIRECT_CALL: 0.0067
BRANCH_INDIRECT_CALL: 0.431
BRANCH_RETURN: 0.0161

LLC TOTAL        ACCESS:     890606 HIT:     270954 MISS:     619652
LLC LOAD         ACCESS:     377830 HIT:     134932 MISS:     242898
LLC RFO          ACCESS:      32836 HIT:       7806 MISS:      25030
LLC PREFETCH     ACCESS:     377830 HIT:     111704 MISS:     266126
LLC WRITE        ACCESS:      83947 HIT:      15767 MISS:      68180
LLC TRANSLATION  ACCESS:      18163 HIT:        745 MISS:      17418
LLC PREFETCH REQUESTED:     377830 ISSUED:     377830 USEFUL:      85843 USELESS:     124272
LLC AVERAGE MISS LATENCY: 521.8 cycles
cpu0_DTLB TOTAL        ACCESS:  146452505 HIT:  145149585 MISS:    1302920
cpu0_DTLB LOAD         ACCESS:  146452505 HIT:  145149585 MISS:    1302920
cpu0_DTLB RFO          ACCESS:          0 HIT:          0 MISS:          0
cpu0_DTLB PREFETCH     ACCESS:          0 HIT:          0 MISS:          0
cpu0_DTLB WRITE        ACCESS:          0 HIT:          0 MISS:          0
cpu0_DTLB TRANSLATION  ACCESS:          0 HIT:          0 MISS:          0
cpu0_DTLB PREFETCH REQUESTED:          0 ISSUED:          0 USEFUL:          0 USELESS:          0
cpu0_DTLB AVERAGE MISS LATENCY: 15.66 cycles
cpu0_ITLB TOTAL        ACCESS:    8984617 HIT:    8799888 MISS:     184729
cpu0_ITLB LOAD         ACCESS:    8984617 HIT:    8799888 MISS:     184729
cpu0_ITLB RFO          ACCESS:          0 HIT:          0 MISS:          0
cpu0_ITLB PREFETCH     ACCESS:          0 HIT:          0 MISS:          0
cpu0_ITLB WRITE        ACCESS:          0 HIT:          0 MISS:          0
cpu0_ITLB TRANSLATION  ACCESS:          0 HIT:          0 MISS:          0
cpu0_ITLB PREFETCH REQUESTED:          0 ISSUED:          0 USEFUL:          0 USELESS:          0
cpu0_ITLB AVERAGE MISS LATENCY: 4.344 cycles
cpu0_L1D TOTAL        ACCESS:  193273835 HIT:  190423467 MISS:    2850368
cpu0_L1D LOAD         ACCESS:  107427277 HIT:  105085532 MISS:    2341745
cpu0_L1D RFO          ACCESS:          0 HIT:          0 MISS:          0
cpu0_L1D PREFETCH     ACCESS:          0 HIT:          0 MISS:          0
cpu0_L1D WRITE        ACCESS:   85818031 HIT:   85335924 MISS:     482107
cpu0_L1D TRANSLATION  ACCESS:      28527 HIT:       2011 MISS:      26516
cpu0_L1D PREFETCH REQUESTED:          0 ISSUED:          0 USEFUL:          0 USELESS:          0
cpu0_L1D AVERAGE MISS LATENCY: 64.01 cycles
cpu0_L1I TOTAL        ACCESS:   10419027 HIT:    8656520 MISS:    1762507
cpu0_L1I LOAD         ACCESS:   10419027 HIT:    8656520 MISS:    1762507
cpu0_L1I RFO          ACCESS:          0 HIT:          0 MISS:          0
cpu0_L1I PREFETCH     ACCESS:          0 HIT:          0 MISS:          0
cpu0_L1I WRITE        ACCESS:          0 HIT:          0 MISS:          0
cpu0_L1I TRANSLATION  ACCESS:          0 HIT:          0 MISS:          0
cpu0_L1I PREFETCH REQUESTED:          0 ISSUED:          0 USEFUL:          0 USELESS:          0
cpu0_L1I AVERAGE MISS LATENCY: 14.84 cycles
cpu0_L2C TOTAL        ACCESS:    3232303 HIT:    2802566 MISS:     429737
cpu0_L2C LOAD         ACCESS:    2710065 HIT:    2332235 MISS:     377830
cpu0_L2C RFO          ACCESS:     133287 HIT:     100451 MISS:      32836
cpu0_L2C PREFETCH     ACCESS:          0 HIT:          0 MISS:          0
cpu0_L2C WRITE        ACCESS:     362503 HIT:     361595 MISS:        908
cpu0_L2C TRANSLATION  ACCESS:      26448 HIT:       8285 MISS:      18163
cpu0_L2C PREFETCH REQUESTED:          0 ISSUED:          0 USEFUL:          0 USELESS:          0
cpu0_L2C AVERAGE MISS LATENCY: 435.4 cycles
cpu0_STLB TOTAL        ACCESS:    1008310 HIT:     981616 MISS:      26694
cpu0_STLB LOAD         ACCESS:    1008310 HIT:     981616 MISS:      26694
cpu0_STLB RFO          ACCESS:          0 HIT:          0 MISS:          0
cpu0_STLB PREFETCH     ACCESS:          0 HIT:          0 MISS:          0
cpu0_STLB WRITE        ACCESS:          0 HIT:          0 MISS:          0
cpu0_STLB TRANSLATION  ACCESS:          0 HIT:          0 MISS:          0
cpu0_STLB PREFETCH REQUESTED:          0 ISSUED:          0 USEFUL:          0 USELESS:          0
cpu0_STLB AVERAGE MISS LATENCY: 555.5 cycles

DRAM Statistics

Channel 0 RQ ROW_BUFFER_HIT:      74726
  ROW_BUFFER_MISS:     408072
 AVG DBUS CONGESTED CYCLE: 3.89
WQ ROW_BUFFER_HIT: Channel 0 
  ROW_BUFFER_MISS:       8217
  FULL:      61052
