WARNING: physical memory size is smaller than virtual memory size.

*** ChampSim Multicore Out-of-Order Simulator ***
Warmup Instructions: 50000000
Simulation Instructions: 600000000
Number of CPUs: 1
Page size: 4096

CPU 0 Tage branch predictor
Off-chip DRAM Size: 4 GiB Channels: 1 Width: 64-bit Data Race: 3200 MT/s
Heartbeat CPU 0 instructions: 10000001 cycles: 2500319 heartbeat IPC: 3.999 cumulative IPC: 3.999 (Simulation time: 00 hr 01 min 26 sec)
Heartbeat CPU 0 instructions: 20000002 cycles: 5037102 heartbeat IPC: 3.942 cumulative IPC: 3.971 (Simulation time: 00 hr 03 min 39 sec)
Heartbeat CPU 0 instructions: 30000002 cycles: 7537102 heartbeat IPC: 4 cumulative IPC: 3.98 (Simulation time: 00 hr 06 min 29 sec)
Heartbeat CPU 0 instructions: 40000002 cycles: 10037102 heartbeat IPC: 4 cumulative IPC: 3.985 (Simulation time: 00 hr 09 min 53 sec)
Heartbeat CPU 0 instructions: 50000002 cycles: 12537102 heartbeat IPC: 4 cumulative IPC: 3.988 (Simulation time: 00 hr 14 min 06 sec)
Warmup finished CPU 0 instructions: 50000002 cycles: 12537103 cumulative IPC: 3.988 (Simulation time: 00 hr 14 min 06 sec)
Warmup complete CPU 0 instructions: 50000002 cycles: 12537103 cumulative IPC: 3.988 (Simulation time: 00 hr 14 min 06 sec)
Heartbeat CPU 0 instructions: 60000001 cycles: 15557259 heartbeat IPC: 3.311 cumulative IPC: 3.311 (Simulation time: 00 hr 19 min 20 sec)
Heartbeat CPU 0 instructions: 70000004 cycles: 18658154 heartbeat IPC: 3.225 cumulative IPC: 3.267 (Simulation time: 00 hr 24 min 25 sec)
Heartbeat CPU 0 instructions: 80000001 cycles: 21733930 heartbeat IPC: 3.251 cumulative IPC: 3.262 (Simulation time: 00 hr 29 min 31 sec)
Heartbeat CPU 0 instructions: 90000001 cycles: 24701580 heartbeat IPC: 3.37 cumulative IPC: 3.288 (Simulation time: 00 hr 34 min 30 sec)
Heartbeat CPU 0 instructions: 100000000 cycles: 27639837 heartbeat IPC: 3.403 cumulative IPC: 3.311 (Simulation time: 00 hr 39 min 31 sec)
Heartbeat CPU 0 instructions: 110000000 cycles: 30598998 heartbeat IPC: 3.379 cumulative IPC: 3.322 (Simulation time: 00 hr 44 min 26 sec)
Heartbeat CPU 0 instructions: 120000001 cycles: 33598337 heartbeat IPC: 3.334 cumulative IPC: 3.324 (Simulation time: 00 hr 49 min 27 sec)
Heartbeat CPU 0 instructions: 130000001 cycles: 36483823 heartbeat IPC: 3.466 cumulative IPC: 3.341 (Simulation time: 00 hr 54 min 27 sec)
Heartbeat CPU 0 instructions: 140000001 cycles: 39575227 heartbeat IPC: 3.235 cumulative IPC: 3.329 (Simulation time: 00 hr 59 min 34 sec)
Heartbeat CPU 0 instructions: 150000001 cycles: 42623073 heartbeat IPC: 3.281 cumulative IPC: 3.324 (Simulation time: 01 hr 04 min 38 sec)
Heartbeat CPU 0 instructions: 160000004 cycles: 45687352 heartbeat IPC: 3.263 cumulative IPC: 3.318 (Simulation time: 01 hr 09 min 45 sec)
Heartbeat CPU 0 instructions: 170000000 cycles: 53345456 heartbeat IPC: 1.306 cumulative IPC: 2.941 (Simulation time: 01 hr 17 min 59 sec)
Heartbeat CPU 0 instructions: 180000004 cycles: 61890138 heartbeat IPC: 1.17 cumulative IPC: 2.634 (Simulation time: 01 hr 26 min 55 sec)
Heartbeat CPU 0 instructions: 190000001 cycles: 70555766 heartbeat IPC: 1.154 cumulative IPC: 2.413 (Simulation time: 01 hr 35 min 55 sec)
Heartbeat CPU 0 instructions: 200000004 cycles: 73556536 heartbeat IPC: 3.332 cumulative IPC: 2.458 (Simulation time: 01 hr 40 min 57 sec)
Heartbeat CPU 0 instructions: 210000001 cycles: 76544574 heartbeat IPC: 3.347 cumulative IPC: 2.5 (Simulation time: 01 hr 45 min 59 sec)
Heartbeat CPU 0 instructions: 220000000 cycles: 79448138 heartbeat IPC: 3.444 cumulative IPC: 2.541 (Simulation time: 01 hr 50 min 54 sec)
Heartbeat CPU 0 instructions: 230000002 cycles: 82513864 heartbeat IPC: 3.262 cumulative IPC: 2.572 (Simulation time: 01 hr 55 min 57 sec)
Heartbeat CPU 0 instructions: 240000003 cycles: 85574067 heartbeat IPC: 3.268 cumulative IPC: 2.601 (Simulation time: 02 hr 01 min 03 sec)
Heartbeat CPU 0 instructions: 250000000 cycles: 88620855 heartbeat IPC: 3.282 cumulative IPC: 2.629 (Simulation time: 02 hr 06 min 08 sec)
Heartbeat CPU 0 instructions: 260000002 cycles: 91604634 heartbeat IPC: 3.351 cumulative IPC: 2.656 (Simulation time: 02 hr 11 min 10 sec)
Heartbeat CPU 0 instructions: 270000002 cycles: 94532752 heartbeat IPC: 3.415 cumulative IPC: 2.683 (Simulation time: 02 hr 16 min 08 sec)
Heartbeat CPU 0 instructions: 280000002 cycles: 97430123 heartbeat IPC: 3.451 cumulative IPC: 2.709 (Simulation time: 02 hr 21 min 09 sec)
Heartbeat CPU 0 instructions: 290000002 cycles: 100409106 heartbeat IPC: 3.357 cumulative IPC: 2.731 (Simulation time: 02 hr 26 min 09 sec)
Heartbeat CPU 0 instructions: 300000003 cycles: 103328311 heartbeat IPC: 3.426 cumulative IPC: 2.754 (Simulation time: 02 hr 31 min 16 sec)
Heartbeat CPU 0 instructions: 310000001 cycles: 106402971 heartbeat IPC: 3.252 cumulative IPC: 2.77 (Simulation time: 02 hr 36 min 21 sec)
Heartbeat CPU 0 instructions: 320000003 cycles: 109432090 heartbeat IPC: 3.301 cumulative IPC: 2.787 (Simulation time: 02 hr 41 min 26 sec)
Heartbeat CPU 0 instructions: 330000003 cycles: 112455659 heartbeat IPC: 3.307 cumulative IPC: 2.802 (Simulation time: 02 hr 46 min 42 sec)
Heartbeat CPU 0 instructions: 340000000 cycles: 120557235 heartbeat IPC: 1.234 cumulative IPC: 2.685 (Simulation time: 02 hr 55 min 18 sec)
Heartbeat CPU 0 instructions: 350000000 cycles: 129677726 heartbeat IPC: 1.096 cumulative IPC: 2.561 (Simulation time: 03 hr 04 min 43 sec)
Heartbeat CPU 0 instructions: 360000004 cycles: 138564154 heartbeat IPC: 1.125 cumulative IPC: 2.46 (Simulation time: 03 hr 13 min 56 sec)
Heartbeat CPU 0 instructions: 370000000 cycles: 141544385 heartbeat IPC: 3.355 cumulative IPC: 2.48 (Simulation time: 03 hr 18 min 58 sec)
Heartbeat CPU 0 instructions: 380000003 cycles: 144488873 heartbeat IPC: 3.396 cumulative IPC: 2.501 (Simulation time: 03 hr 23 min 59 sec)
Heartbeat CPU 0 instructions: 390000002 cycles: 147479573 heartbeat IPC: 3.344 cumulative IPC: 2.52 (Simulation time: 03 hr 29 min 02 sec)
Heartbeat CPU 0 instructions: 400000004 cycles: 150386647 heartbeat IPC: 3.44 cumulative IPC: 2.539 (Simulation time: 03 hr 33 min 57 sec)
Heartbeat CPU 0 instructions: 410000002 cycles: 153347483 heartbeat IPC: 3.377 cumulative IPC: 2.557 (Simulation time: 03 hr 38 min 58 sec)
Heartbeat CPU 0 instructions: 420000003 cycles: 156538597 heartbeat IPC: 3.134 cumulative IPC: 2.569 (Simulation time: 03 hr 44 min 10 sec)
Heartbeat CPU 0 instructions: 430000001 cycles: 159564899 heartbeat IPC: 3.304 cumulative IPC: 2.585 (Simulation time: 03 hr 49 min 14 sec)
Heartbeat CPU 0 instructions: 440000004 cycles: 162714366 heartbeat IPC: 3.175 cumulative IPC: 2.597 (Simulation time: 03 hr 54 min 22 sec)
Heartbeat CPU 0 instructions: 450000002 cycles: 165647250 heartbeat IPC: 3.41 cumulative IPC: 2.612 (Simulation time: 03 hr 59 min 25 sec)
Heartbeat CPU 0 instructions: 460000000 cycles: 168588757 heartbeat IPC: 3.4 cumulative IPC: 2.627 (Simulation time: 04 hr 04 min 27 sec)
Heartbeat CPU 0 instructions: 470000001 cycles: 171454332 heartbeat IPC: 3.49 cumulative IPC: 2.643 (Simulation time: 04 hr 09 min 23 sec)
Heartbeat CPU 0 instructions: 480000003 cycles: 174530405 heartbeat IPC: 3.251 cumulative IPC: 2.654 (Simulation time: 04 hr 14 min 25 sec)
Heartbeat CPU 0 instructions: 490000004 cycles: 177366085 heartbeat IPC: 3.526 cumulative IPC: 2.669 (Simulation time: 04 hr 19 min 15 sec)
Heartbeat CPU 0 instructions: 500000004 cycles: 180357474 heartbeat IPC: 3.343 cumulative IPC: 2.681 (Simulation time: 04 hr 24 min 13 sec)
Heartbeat CPU 0 instructions: 510000003 cycles: 183406560 heartbeat IPC: 3.28 cumulative IPC: 2.692 (Simulation time: 04 hr 29 min 20 sec)
Heartbeat CPU 0 instructions: 520000001 cycles: 186308955 heartbeat IPC: 3.445 cumulative IPC: 2.705 (Simulation time: 04 hr 34 min 22 sec)
Heartbeat CPU 0 instructions: 530000001 cycles: 189334713 heartbeat IPC: 3.305 cumulative IPC: 2.715 (Simulation time: 04 hr 39 min 18 sec)
Heartbeat CPU 0 instructions: 540000000 cycles: 192308531 heartbeat IPC: 3.363 cumulative IPC: 2.726 (Simulation time: 04 hr 44 min 19 sec)
Heartbeat CPU 0 instructions: 550000001 cycles: 195305391 heartbeat IPC: 3.337 cumulative IPC: 2.736 (Simulation time: 04 hr 49 min 20 sec)
Heartbeat CPU 0 instructions: 560000000 cycles: 198430920 heartbeat IPC: 3.199 cumulative IPC: 2.744 (Simulation time: 04 hr 54 min 21 sec)
Heartbeat CPU 0 instructions: 570000004 cycles: 203714928 heartbeat IPC: 1.893 cumulative IPC: 2.72 (Simulation time: 05 hr 00 min 58 sec)
Heartbeat CPU 0 instructions: 580000003 cycles: 212972744 heartbeat IPC: 1.08 cumulative IPC: 2.644 (Simulation time: 05 hr 10 min 25 sec)
Heartbeat CPU 0 instructions: 590000002 cycles: 224062388 heartbeat IPC: 0.9017 cumulative IPC: 2.553 (Simulation time: 05 hr 21 min 10 sec)
Heartbeat CPU 0 instructions: 600000004 cycles: 227181741 heartbeat IPC: 3.206 cumulative IPC: 2.562 (Simulation time: 05 hr 26 min 15 sec)
Heartbeat CPU 0 instructions: 610000002 cycles: 230168202 heartbeat IPC: 3.348 cumulative IPC: 2.573 (Simulation time: 05 hr 31 min 15 sec)
Heartbeat CPU 0 instructions: 620000001 cycles: 232955528 heartbeat IPC: 3.588 cumulative IPC: 2.586 (Simulation time: 05 hr 36 min 08 sec)
Heartbeat CPU 0 instructions: 630000002 cycles: 235946726 heartbeat IPC: 3.343 cumulative IPC: 2.596 (Simulation time: 05 hr 41 min 25 sec)
Heartbeat CPU 0 instructions: 640000004 cycles: 238900131 heartbeat IPC: 3.386 cumulative IPC: 2.606 (Simulation time: 05 hr 46 min 52 sec)
Heartbeat CPU 0 instructions: 650000000 cycles: 241655015 heartbeat IPC: 3.63 cumulative IPC: 2.619 (Simulation time: 05 hr 51 min 58 sec)
Simulation finished CPU 0 instructions: 600000001 cycles: 229117914 cumulative IPC: 2.619 (Simulation time: 05 hr 51 min 58 sec)
Simulation complete CPU 0 instructions: 600000001 cycles: 229117914 cumulative IPC: 2.619 (Simulation time: 05 hr 51 min 58 sec)

ChampSim completed all CPUs

=== Simulation ===
CPU 0 runs traces/400.perlbench-41B.champsimtrace.xz
Region of Interest Statistics

CPU 0 cumulative IPC: 2.619 instructions: 600000001 cycles: 229117914
CPU 0 Branch Prediction Accuracy: 99.19% MPKI: 1.684 Average ROB Occupancy at Mispredict: 101.7
Branch type MPKI
BRANCH_DIRECT_JUMP: 0.0123
BRANCH_INDIRECT: 0.323
BRANCH_CONDITIONAL: 1.14
BRANCH_DIRECT_CALL: 0.0043
BRANCH_INDIRECT_CALL: 0.2
BRANCH_RETURN: 0.00828

LLC TOTAL        ACCESS:     721766 HIT:     265640 MISS:     456126
LLC LOAD         ACCESS:     308545 HIT:     103938 MISS:     204607
LLC RFO          ACCESS:      25164 HIT:       8765 MISS:      16399
LLC PREFETCH     ACCESS:     308545 HIT:      90939 MISS:     217606
LLC WRITE        ACCESS:      63931 HIT:      57706 MISS:       6225
LLC TRANSLATION  ACCESS:      15581 HIT:       4292 MISS:      11289
LLC PREFETCH REQUESTED:     308545 ISSUED:     308545 USEFUL:      70951 USELESS:      89873
LLC AVERAGE MISS LATENCY: 664.7 cycles
cpu0_DTLB TOTAL        ACCESS:  129742496 HIT:  129040829 MISS:     701667
cpu0_DTLB LOAD         ACCESS:  129742496 HIT:  129040829 MISS:     701667
cpu0_DTLB RFO          ACCESS:          0 HIT:          0 MISS:          0
cpu0_DTLB PREFETCH     ACCESS:          0 HIT:          0 MISS:          0
cpu0_DTLB WRITE        ACCESS:          0 HIT:          0 MISS:          0
cpu0_DTLB TRANSLATION  ACCESS:          0 HIT:          0 MISS:          0
cpu0_DTLB PREFETCH REQUESTED:          0 ISSUED:          0 USEFUL:          0 USELESS:          0
cpu0_DTLB AVERAGE MISS LATENCY: 18.5 cycles
cpu0_ITLB TOTAL        ACCESS:    4870234 HIT:    4807567 MISS:      62667
cpu0_ITLB LOAD         ACCESS:    4870234 HIT:    4807567 MISS:      62667
cpu0_ITLB RFO          ACCESS:          0 HIT:          0 MISS:          0
cpu0_ITLB PREFETCH     ACCESS:          0 HIT:          0 MISS:          0
cpu0_ITLB WRITE        ACCESS:          0 HIT:          0 MISS:          0
cpu0_ITLB TRANSLATION  ACCESS:          0 HIT:          0 MISS:          0
cpu0_ITLB PREFETCH REQUESTED:          0 ISSUED:          0 USEFUL:          0 USELESS:          0
cpu0_ITLB AVERAGE MISS LATENCY: 7.71 cycles
cpu0_L1D TOTAL        ACCESS:  174350481 HIT:  172956058 MISS:    1394423
cpu0_L1D LOAD         ACCESS:   91329051 HIT:   90256049 MISS:    1073002
cpu0_L1D RFO          ACCESS:          0 HIT:          0 MISS:          0
cpu0_L1D PREFETCH     ACCESS:          0 HIT:          0 MISS:          0
cpu0_L1D WRITE        ACCESS:   82996964 HIT:   82698410 MISS:     298554
cpu0_L1D TRANSLATION  ACCESS:      24466 HIT:       1599 MISS:      22867
cpu0_L1D PREFETCH REQUESTED:          0 ISSUED:          0 USEFUL:          0 USELESS:          0
cpu0_L1D AVERAGE MISS LATENCY: 121.6 cycles
cpu0_L1I TOTAL        ACCESS:    5649525 HIT:    4844430 MISS:     805095
cpu0_L1I LOAD         ACCESS:    5649525 HIT:    4844430 MISS:     805095
cpu0_L1I RFO          ACCESS:          0 HIT:          0 MISS:          0
cpu0_L1I PREFETCH     ACCESS:          0 HIT:          0 MISS:          0
cpu0_L1I WRITE        ACCESS:          0 HIT:          0 MISS:          0
cpu0_L1I TRANSLATION  ACCESS:          0 HIT:          0 MISS:          0
cpu0_L1I PREFETCH REQUESTED:          0 ISSUED:          0 USEFUL:          0 USELESS:          0
cpu0_L1I AVERAGE MISS LATENCY: 14.21 cycles
cpu0_L2C TOTAL        ACCESS:    1381689 HIT:    1031502 MISS:     350187
cpu0_L2C LOAD         ACCESS:    1124018 HIT:     815473 MISS:     308545
cpu0_L2C RFO          ACCESS:      64504 HIT:      39340 MISS:      25164
cpu0_L2C PREFETCH     ACCESS:          0 HIT:          0 MISS:          0
cpu0_L2C WRITE        ACCESS:     170383 HIT:     169486 MISS:        897
cpu0_L2C TRANSLATION  ACCESS:      22784 HIT:       7203 MISS:      15581
cpu0_L2C PREFETCH REQUESTED:          0 ISSUED:          0 USEFUL:          0 USELESS:          0
cpu0_L2C AVERAGE MISS LATENCY: 517.6 cycles
cpu0_STLB TOTAL        ACCESS:     508612 HIT:     485823 MISS:      22789
cpu0_STLB LOAD         ACCESS:     508612 HIT:     485823 MISS:      22789
cpu0_STLB RFO          ACCESS:          0 HIT:          0 MISS:          0
cpu0_STLB PREFETCH     ACCESS:          0 HIT:          0 MISS:          0
cpu0_STLB WRITE        ACCESS:          0 HIT:          0 MISS:          0
cpu0_STLB TRANSLATION  ACCESS:          0 HIT:          0 MISS:          0
cpu0_STLB PREFETCH REQUESTED:          0 ISSUED:          0 USEFUL:          0 USELESS:          0
cpu0_STLB AVERAGE MISS LATENCY: 473.7 cycles

DRAM Statistics

Channel 0 RQ ROW_BUFFER_HIT:      69818
  ROW_BUFFER_MISS:     301657
 AVG DBUS CONGESTED CYCLE: 3.904
WQ ROW_BUFFER_HIT: Channel 0 
  ROW_BUFFER_MISS:       3688
  FULL:      43238
