WARNING: physical memory size is smaller than virtual memory size.

*** ChampSim Multicore Out-of-Order Simulator ***
Warmup Instructions: 50000000
Simulation Instructions: 600000000
Number of CPUs: 1
Page size: 4096

Off-chip DRAM Size: 4 GiB Channels: 1 Width: 64-bit Data Race: 3200 MT/s
Heartbeat CPU 0 instructions: 10000001 cycles: 2500319 heartbeat IPC: 3.999 cumulative IPC: 3.999 (Simulation time: 00 hr 00 min 52 sec)
Heartbeat CPU 0 instructions: 20000002 cycles: 5037098 heartbeat IPC: 3.942 cumulative IPC: 3.971 (Simulation time: 00 hr 02 min 25 sec)
Heartbeat CPU 0 instructions: 30000002 cycles: 7537098 heartbeat IPC: 4 cumulative IPC: 3.98 (Simulation time: 00 hr 04 min 11 sec)
Heartbeat CPU 0 instructions: 40000002 cycles: 10037098 heartbeat IPC: 4 cumulative IPC: 3.985 (Simulation time: 00 hr 06 min 28 sec)
Heartbeat CPU 0 instructions: 50000002 cycles: 12537098 heartbeat IPC: 4 cumulative IPC: 3.988 (Simulation time: 00 hr 09 min 15 sec)
Warmup finished CPU 0 instructions: 50000002 cycles: 12537099 cumulative IPC: 3.988 (Simulation time: 00 hr 09 min 15 sec)
Warmup complete CPU 0 instructions: 50000002 cycles: 12537099 cumulative IPC: 3.988 (Simulation time: 00 hr 09 min 15 sec)
Heartbeat CPU 0 instructions: 60000000 cycles: 17149590 heartbeat IPC: 2.168 cumulative IPC: 2.168 (Simulation time: 00 hr 13 min 54 sec)
Heartbeat CPU 0 instructions: 70000004 cycles: 21426421 heartbeat IPC: 2.338 cumulative IPC: 2.25 (Simulation time: 00 hr 19 min 03 sec)
Heartbeat CPU 0 instructions: 80000001 cycles: 26018542 heartbeat IPC: 2.178 cumulative IPC: 2.225 (Simulation time: 00 hr 24 min 04 sec)
Heartbeat CPU 0 instructions: 90000001 cycles: 30134933 heartbeat IPC: 2.429 cumulative IPC: 2.273 (Simulation time: 00 hr 28 min 52 sec)
Heartbeat CPU 0 instructions: 100000000 cycles: 34180155 heartbeat IPC: 2.472 cumulative IPC: 2.31 (Simulation time: 00 hr 33 min 38 sec)
Heartbeat CPU 0 instructions: 110000000 cycles: 38406123 heartbeat IPC: 2.366 cumulative IPC: 2.319 (Simulation time: 00 hr 38 min 29 sec)
Heartbeat CPU 0 instructions: 120000001 cycles: 42416225 heartbeat IPC: 2.494 cumulative IPC: 2.343 (Simulation time: 00 hr 43 min 11 sec)
Heartbeat CPU 0 instructions: 130000001 cycles: 46148412 heartbeat IPC: 2.679 cumulative IPC: 2.38 (Simulation time: 00 hr 47 min 45 sec)
Heartbeat CPU 0 instructions: 140000001 cycles: 50316204 heartbeat IPC: 2.399 cumulative IPC: 2.382 (Simulation time: 00 hr 52 min 33 sec)
Heartbeat CPU 0 instructions: 150000001 cycles: 54512973 heartbeat IPC: 2.383 cumulative IPC: 2.382 (Simulation time: 00 hr 57 min 23 sec)
Heartbeat CPU 0 instructions: 160000004 cycles: 58934385 heartbeat IPC: 2.262 cumulative IPC: 2.371 (Simulation time: 01 hr 02 min 21 sec)
Heartbeat CPU 0 instructions: 170000000 cycles: 68397899 heartbeat IPC: 1.057 cumulative IPC: 2.148 (Simulation time: 01 hr 10 min 33 sec)
Heartbeat CPU 0 instructions: 180000004 cycles: 79058594 heartbeat IPC: 0.938 cumulative IPC: 1.954 (Simulation time: 01 hr 19 min 42 sec)
Heartbeat CPU 0 instructions: 190000001 cycles: 89506630 heartbeat IPC: 0.9571 cumulative IPC: 1.819 (Simulation time: 01 hr 28 min 35 sec)
Heartbeat CPU 0 instructions: 200000004 cycles: 93296333 heartbeat IPC: 2.639 cumulative IPC: 1.857 (Simulation time: 01 hr 33 min 08 sec)
Heartbeat CPU 0 instructions: 210000001 cycles: 97218231 heartbeat IPC: 2.55 cumulative IPC: 1.889 (Simulation time: 01 hr 37 min 48 sec)
Heartbeat CPU 0 instructions: 220000000 cycles: 101175749 heartbeat IPC: 2.527 cumulative IPC: 1.918 (Simulation time: 01 hr 42 min 26 sec)
Heartbeat CPU 0 instructions: 230000002 cycles: 105851521 heartbeat IPC: 2.139 cumulative IPC: 1.929 (Simulation time: 01 hr 47 min 28 sec)
Heartbeat CPU 0 instructions: 240000000 cycles: 110052466 heartbeat IPC: 2.38 cumulative IPC: 1.948 (Simulation time: 01 hr 52 min 20 sec)
Heartbeat CPU 0 instructions: 250000000 cycles: 114368867 heartbeat IPC: 2.317 cumulative IPC: 1.964 (Simulation time: 01 hr 57 min 14 sec)
Heartbeat CPU 0 instructions: 260000000 cycles: 118537866 heartbeat IPC: 2.399 cumulative IPC: 1.981 (Simulation time: 02 hr 02 min 02 sec)
Heartbeat CPU 0 instructions: 270000002 cycles: 122385713 heartbeat IPC: 2.599 cumulative IPC: 2.003 (Simulation time: 02 hr 06 min 41 sec)
Heartbeat CPU 0 instructions: 280000002 cycles: 126546515 heartbeat IPC: 2.403 cumulative IPC: 2.017 (Simulation time: 02 hr 11 min 29 sec)
Heartbeat CPU 0 instructions: 290000001 cycles: 130453163 heartbeat IPC: 2.56 cumulative IPC: 2.035 (Simulation time: 02 hr 16 min 13 sec)
Heartbeat CPU 0 instructions: 300000003 cycles: 134269773 heartbeat IPC: 2.62 cumulative IPC: 2.054 (Simulation time: 02 hr 20 min 55 sec)
Heartbeat CPU 0 instructions: 310000001 cycles: 138409256 heartbeat IPC: 2.416 cumulative IPC: 2.066 (Simulation time: 02 hr 25 min 45 sec)
Heartbeat CPU 0 instructions: 320000003 cycles: 142491924 heartbeat IPC: 2.449 cumulative IPC: 2.078 (Simulation time: 02 hr 30 min 34 sec)
Heartbeat CPU 0 instructions: 330000003 cycles: 146897231 heartbeat IPC: 2.27 cumulative IPC: 2.084 (Simulation time: 02 hr 35 min 30 sec)
Heartbeat CPU 0 instructions: 340000000 cycles: 156844921 heartbeat IPC: 1.005 cumulative IPC: 2.01 (Simulation time: 02 hr 44 min 13 sec)
Heartbeat CPU 0 instructions: 350000000 cycles: 168107061 heartbeat IPC: 0.8879 cumulative IPC: 1.928 (Simulation time: 02 hr 53 min 43 sec)
Heartbeat CPU 0 instructions: 360000004 cycles: 178682019 heartbeat IPC: 0.9456 cumulative IPC: 1.866 (Simulation time: 03 hr 02 min 44 sec)
Heartbeat CPU 0 instructions: 370000000 cycles: 182116945 heartbeat IPC: 2.911 cumulative IPC: 1.887 (Simulation time: 03 hr 07 min 10 sec)
Heartbeat CPU 0 instructions: 380000001 cycles: 185543806 heartbeat IPC: 2.918 cumulative IPC: 1.907 (Simulation time: 03 hr 11 min 41 sec)
Heartbeat CPU 0 instructions: 390000004 cycles: 189286496 heartbeat IPC: 2.672 cumulative IPC: 1.924 (Simulation time: 03 hr 16 min 17 sec)
Heartbeat CPU 0 instructions: 400000004 cycles: 193095885 heartbeat IPC: 2.625 cumulative IPC: 1.938 (Simulation time: 03 hr 20 min 54 sec)
Heartbeat CPU 0 instructions: 410000001 cycles: 196752693 heartbeat IPC: 2.735 cumulative IPC: 1.954 (Simulation time: 03 hr 25 min 25 sec)
Heartbeat CPU 0 instructions: 420000003 cycles: 200871267 heartbeat IPC: 2.428 cumulative IPC: 1.965 (Simulation time: 03 hr 30 min 12 sec)
Heartbeat CPU 0 instructions: 430000001 cycles: 204533075 heartbeat IPC: 2.731 cumulative IPC: 1.979 (Simulation time: 03 hr 34 min 49 sec)
Heartbeat CPU 0 instructions: 440000004 cycles: 208609074 heartbeat IPC: 2.453 cumulative IPC: 1.989 (Simulation time: 03 hr 39 min 36 sec)
Heartbeat CPU 0 instructions: 450000002 cycles: 212328841 heartbeat IPC: 2.688 cumulative IPC: 2.002 (Simulation time: 03 hr 44 min 14 sec)
Heartbeat CPU 0 instructions: 460000000 cycles: 215979965 heartbeat IPC: 2.739 cumulative IPC: 2.015 (Simulation time: 03 hr 48 min 49 sec)
Heartbeat CPU 0 instructions: 470000000 cycles: 219435613 heartbeat IPC: 2.894 cumulative IPC: 2.03 (Simulation time: 03 hr 53 min 20 sec)
Heartbeat CPU 0 instructions: 480000003 cycles: 223260465 heartbeat IPC: 2.614 cumulative IPC: 2.041 (Simulation time: 03 hr 57 min 58 sec)
Heartbeat CPU 0 instructions: 490000000 cycles: 226880104 heartbeat IPC: 2.763 cumulative IPC: 2.053 (Simulation time: 04 hr 02 min 29 sec)
Heartbeat CPU 0 instructions: 500000000 cycles: 230576566 heartbeat IPC: 2.705 cumulative IPC: 2.064 (Simulation time: 04 hr 07 min 07 sec)
Heartbeat CPU 0 instructions: 510000003 cycles: 234230075 heartbeat IPC: 2.737 cumulative IPC: 2.075 (Simulation time: 04 hr 11 min 44 sec)
Heartbeat CPU 0 instructions: 520000001 cycles: 237631333 heartbeat IPC: 2.94 cumulative IPC: 2.088 (Simulation time: 04 hr 16 min 14 sec)
Heartbeat CPU 0 instructions: 530000002 cycles: 241304341 heartbeat IPC: 2.723 cumulative IPC: 2.098 (Simulation time: 04 hr 20 min 48 sec)
Heartbeat CPU 0 instructions: 540000000 cycles: 244827834 heartbeat IPC: 2.838 cumulative IPC: 2.109 (Simulation time: 04 hr 25 min 15 sec)
Heartbeat CPU 0 instructions: 550000001 cycles: 248529375 heartbeat IPC: 2.702 cumulative IPC: 2.119 (Simulation time: 04 hr 29 min 50 sec)
Heartbeat CPU 0 instructions: 560000000 cycles: 252509055 heartbeat IPC: 2.513 cumulative IPC: 2.125 (Simulation time: 04 hr 34 min 30 sec)
Heartbeat CPU 0 instructions: 570000004 cycles: 258865023 heartbeat IPC: 1.573 cumulative IPC: 2.111 (Simulation time: 04 hr 40 min 49 sec)
Heartbeat CPU 0 instructions: 580000003 cycles: 270386085 heartbeat IPC: 0.868 cumulative IPC: 2.055 (Simulation time: 04 hr 50 min 29 sec)
Heartbeat CPU 0 instructions: 590000002 cycles: 283730984 heartbeat IPC: 0.7493 cumulative IPC: 1.991 (Simulation time: 05 hr 01 min 17 sec)
Heartbeat CPU 0 instructions: 600000000 cycles: 287500822 heartbeat IPC: 2.653 cumulative IPC: 2 (Simulation time: 05 hr 05 min 51 sec)
Heartbeat CPU 0 instructions: 610000000 cycles: 291364245 heartbeat IPC: 2.588 cumulative IPC: 2.008 (Simulation time: 05 hr 10 min 26 sec)
Heartbeat CPU 0 instructions: 620000001 cycles: 294801090 heartbeat IPC: 2.91 cumulative IPC: 2.019 (Simulation time: 05 hr 14 min 52 sec)
Heartbeat CPU 0 instructions: 630000002 cycles: 299076095 heartbeat IPC: 2.339 cumulative IPC: 2.024 (Simulation time: 05 hr 19 min 41 sec)
Heartbeat CPU 0 instructions: 640000001 cycles: 302971340 heartbeat IPC: 2.567 cumulative IPC: 2.031 (Simulation time: 05 hr 24 min 25 sec)
Heartbeat CPU 0 instructions: 650000000 cycles: 306726346 heartbeat IPC: 2.663 cumulative IPC: 2.04 (Simulation time: 05 hr 28 min 59 sec)
Simulation finished CPU 0 instructions: 600000001 cycles: 294189249 cumulative IPC: 2.04 (Simulation time: 05 hr 28 min 59 sec)
Simulation complete CPU 0 instructions: 600000001 cycles: 294189249 cumulative IPC: 2.04 (Simulation time: 05 hr 28 min 59 sec)

ChampSim completed all CPUs

=== Simulation ===
CPU 0 runs traces/400.perlbench-41B.champsimtrace.xz
Region of Interest Statistics

CPU 0 cumulative IPC: 2.04 instructions: 600000001 cycles: 294189249
CPU 0 Branch Prediction Accuracy: 96.56% MPKI: 7.112 Average ROB Occupancy at Mispredict: 47.12
Branch type MPKI
BRANCH_DIRECT_JUMP: 0.0123
BRANCH_INDIRECT: 0.323
BRANCH_CONDITIONAL: 6.56
BRANCH_DIRECT_CALL: 0.0043
BRANCH_INDIRECT_CALL: 0.2
BRANCH_RETURN: 0.00828

LLC TOTAL        ACCESS:     721682 HIT:     280980 MISS:     440702
LLC LOAD         ACCESS:     308502 HIT:     113382 MISS:     195120
LLC RFO          ACCESS:      25181 HIT:       8514 MISS:      16667
LLC PREFETCH     ACCESS:     308502 HIT:      97648 MISS:     210854
LLC WRITE        ACCESS:      63853 HIT:      57112 MISS:       6741
LLC TRANSLATION  ACCESS:      15644 HIT:       4324 MISS:      11320
LLC PREFETCH REQUESTED:     308502 ISSUED:     308502 USEFUL:      71460 USELESS:      90096
LLC AVERAGE MISS LATENCY: 591.7 cycles
cpu0_DTLB TOTAL        ACCESS:  141890648 HIT:  141205323 MISS:     685325
cpu0_DTLB LOAD         ACCESS:  141890648 HIT:  141205323 MISS:     685325
cpu0_DTLB RFO          ACCESS:          0 HIT:          0 MISS:          0
cpu0_DTLB PREFETCH     ACCESS:          0 HIT:          0 MISS:          0
cpu0_DTLB WRITE        ACCESS:          0 HIT:          0 MISS:          0
cpu0_DTLB TRANSLATION  ACCESS:          0 HIT:          0 MISS:          0
cpu0_DTLB PREFETCH REQUESTED:          0 ISSUED:          0 USEFUL:          0 USELESS:          0
cpu0_DTLB AVERAGE MISS LATENCY: 17.5 cycles
cpu0_ITLB TOTAL        ACCESS:    4856945 HIT:    4803647 MISS:      53298
cpu0_ITLB LOAD         ACCESS:    4856945 HIT:    4803647 MISS:      53298
cpu0_ITLB RFO          ACCESS:          0 HIT:          0 MISS:          0
cpu0_ITLB PREFETCH     ACCESS:          0 HIT:          0 MISS:          0
cpu0_ITLB WRITE        ACCESS:          0 HIT:          0 MISS:          0
cpu0_ITLB TRANSLATION  ACCESS:          0 HIT:          0 MISS:          0
cpu0_ITLB PREFETCH REQUESTED:          0 ISSUED:          0 USEFUL:          0 USELESS:          0
cpu0_ITLB AVERAGE MISS LATENCY: 9.217 cycles
cpu0_L1D TOTAL        ACCESS:  188572303 HIT:  187229848 MISS:    1342455
cpu0_L1D LOAD         ACCESS:  105205398 HIT:  104173306 MISS:    1032092
cpu0_L1D RFO          ACCESS:          0 HIT:          0 MISS:          0
cpu0_L1D PREFETCH     ACCESS:          0 HIT:          0 MISS:          0
cpu0_L1D WRITE        ACCESS:   83342442 HIT:   83054933 MISS:     287509
cpu0_L1D TRANSLATION  ACCESS:      24463 HIT:       1609 MISS:      22854
cpu0_L1D PREFETCH REQUESTED:          0 ISSUED:          0 USEFUL:          0 USELESS:          0
cpu0_L1D AVERAGE MISS LATENCY: 110.8 cycles
cpu0_L1I TOTAL        ACCESS:    5594714 HIT:    4850951 MISS:     743763
cpu0_L1I LOAD         ACCESS:    5594714 HIT:    4850951 MISS:     743763
cpu0_L1I RFO          ACCESS:          0 HIT:          0 MISS:          0
cpu0_L1I PREFETCH     ACCESS:          0 HIT:          0 MISS:          0
cpu0_L1I WRITE        ACCESS:          0 HIT:          0 MISS:          0
cpu0_L1I TRANSLATION  ACCESS:          0 HIT:          0 MISS:          0
cpu0_L1I PREFETCH REQUESTED:          0 ISSUED:          0 USEFUL:          0 USELESS:          0
cpu0_L1I AVERAGE MISS LATENCY: 14.56 cycles
cpu0_L2C TOTAL        ACCESS:    1380890 HIT:    1030680 MISS:     350210
cpu0_L2C LOAD         ACCESS:    1124751 HIT:     816249 MISS:     308502
cpu0_L2C RFO          ACCESS:      63801 HIT:      38620 MISS:      25181
cpu0_L2C PREFETCH     ACCESS:          0 HIT:          0 MISS:          0
cpu0_L2C WRITE        ACCESS:     169554 HIT:     168671 MISS:        883
cpu0_L2C TRANSLATION  ACCESS:      22784 HIT:       7140 MISS:      15644
cpu0_L2C PREFETCH REQUESTED:          0 ISSUED:          0 USEFUL:          0 USELESS:          0
cpu0_L2C AVERAGE MISS LATENCY: 436 cycles
cpu0_STLB TOTAL        ACCESS:     507224 HIT:     484431 MISS:      22793
cpu0_STLB LOAD         ACCESS:     507224 HIT:     484431 MISS:      22793
cpu0_STLB RFO          ACCESS:          0 HIT:          0 MISS:          0
cpu0_STLB PREFETCH     ACCESS:          0 HIT:          0 MISS:          0
cpu0_STLB WRITE        ACCESS:          0 HIT:          0 MISS:          0
cpu0_STLB TRANSLATION  ACCESS:          0 HIT:          0 MISS:          0
cpu0_STLB PREFETCH REQUESTED:          0 ISSUED:          0 USEFUL:          0 USELESS:          0
cpu0_STLB AVERAGE MISS LATENCY: 412.7 cycles

DRAM Statistics

Channel 0 RQ ROW_BUFFER_HIT:      62157
  ROW_BUFFER_MISS:     308424
 AVG DBUS CONGESTED CYCLE: 3.885
WQ ROW_BUFFER_HIT: Channel 0 
  ROW_BUFFER_MISS:       5433
  FULL:      41979
