WARNING: physical memory size is smaller than virtual memory size.

*** ChampSim Multicore Out-of-Order Simulator ***
Warmup Instructions: 50000000
Simulation Instructions: 600000000
Number of CPUs: 1
Page size: 4096

CPU 0 Tage branch predictor
Off-chip DRAM Size: 4 GiB Channels: 1 Width: 64-bit Data Race: 3200 MT/s
Heartbeat CPU 0 instructions: 10000000 cycles: 2500061 heartbeat IPC: 4 cumulative IPC: 4 (Simulation time: 00 hr 03 min 57 sec)
Heartbeat CPU 0 instructions: 20000000 cycles: 5000061 heartbeat IPC: 4 cumulative IPC: 4 (Simulation time: 00 hr 08 min 25 sec)
Heartbeat CPU 0 instructions: 30000000 cycles: 7500061 heartbeat IPC: 4 cumulative IPC: 4 (Simulation time: 00 hr 12 min 38 sec)
Heartbeat CPU 0 instructions: 40000000 cycles: 10000061 heartbeat IPC: 4 cumulative IPC: 4 (Simulation time: 00 hr 16 min 51 sec)
Heartbeat CPU 0 instructions: 50000000 cycles: 12500061 heartbeat IPC: 4 cumulative IPC: 4 (Simulation time: 00 hr 21 min 04 sec)
Warmup finished CPU 0 instructions: 50000000 cycles: 12500062 cumulative IPC: 4 (Simulation time: 00 hr 21 min 04 sec)
Warmup complete CPU 0 instructions: 50000000 cycles: 12500062 cumulative IPC: 4 (Simulation time: 00 hr 21 min 04 sec)
Heartbeat CPU 0 instructions: 60000004 cycles: 15503755 heartbeat IPC: 3.329 cumulative IPC: 3.329 (Simulation time: 00 hr 26 min 11 sec)
Heartbeat CPU 0 instructions: 70000003 cycles: 18381707 heartbeat IPC: 3.475 cumulative IPC: 3.4 (Simulation time: 00 hr 31 min 12 sec)
Heartbeat CPU 0 instructions: 80000002 cycles: 21403704 heartbeat IPC: 3.309 cumulative IPC: 3.369 (Simulation time: 00 hr 36 min 17 sec)
Heartbeat CPU 0 instructions: 90000000 cycles: 24125815 heartbeat IPC: 3.674 cumulative IPC: 3.441 (Simulation time: 00 hr 41 min 10 sec)
Heartbeat CPU 0 instructions: 100000003 cycles: 26891989 heartbeat IPC: 3.615 cumulative IPC: 3.474 (Simulation time: 00 hr 46 min 09 sec)
Heartbeat CPU 0 instructions: 110000001 cycles: 29797284 heartbeat IPC: 3.442 cumulative IPC: 3.469 (Simulation time: 00 hr 51 min 10 sec)
Heartbeat CPU 0 instructions: 120000001 cycles: 32521234 heartbeat IPC: 3.671 cumulative IPC: 3.496 (Simulation time: 00 hr 56 min 06 sec)
Heartbeat CPU 0 instructions: 130000003 cycles: 35423852 heartbeat IPC: 3.445 cumulative IPC: 3.49 (Simulation time: 01 hr 01 min 09 sec)
Heartbeat CPU 0 instructions: 140000002 cycles: 38261887 heartbeat IPC: 3.524 cumulative IPC: 3.494 (Simulation time: 01 hr 06 min 09 sec)
Heartbeat CPU 0 instructions: 150000001 cycles: 41035638 heartbeat IPC: 3.605 cumulative IPC: 3.504 (Simulation time: 01 hr 11 min 05 sec)
Heartbeat CPU 0 instructions: 160000000 cycles: 43951113 heartbeat IPC: 3.43 cumulative IPC: 3.497 (Simulation time: 01 hr 16 min 22 sec)
Heartbeat CPU 0 instructions: 170000001 cycles: 46882100 heartbeat IPC: 3.412 cumulative IPC: 3.49 (Simulation time: 01 hr 21 min 32 sec)
Heartbeat CPU 0 instructions: 180000000 cycles: 49680801 heartbeat IPC: 3.573 cumulative IPC: 3.496 (Simulation time: 01 hr 26 min 38 sec)
Heartbeat CPU 0 instructions: 190000002 cycles: 52388674 heartbeat IPC: 3.693 cumulative IPC: 3.51 (Simulation time: 01 hr 31 min 52 sec)
Heartbeat CPU 0 instructions: 200000002 cycles: 55218529 heartbeat IPC: 3.534 cumulative IPC: 3.511 (Simulation time: 01 hr 36 min 45 sec)
Heartbeat CPU 0 instructions: 210000000 cycles: 58118840 heartbeat IPC: 3.448 cumulative IPC: 3.507 (Simulation time: 01 hr 41 min 23 sec)
Heartbeat CPU 0 instructions: 220000001 cycles: 60884297 heartbeat IPC: 3.616 cumulative IPC: 3.514 (Simulation time: 01 hr 45 min 57 sec)
Heartbeat CPU 0 instructions: 230000002 cycles: 63778352 heartbeat IPC: 3.455 cumulative IPC: 3.51 (Simulation time: 01 hr 50 min 32 sec)
Heartbeat CPU 0 instructions: 240000004 cycles: 66739690 heartbeat IPC: 3.377 cumulative IPC: 3.503 (Simulation time: 01 hr 55 min 10 sec)
Heartbeat CPU 0 instructions: 250000003 cycles: 69646984 heartbeat IPC: 3.44 cumulative IPC: 3.5 (Simulation time: 01 hr 59 min 49 sec)
Heartbeat CPU 0 instructions: 260000001 cycles: 72441270 heartbeat IPC: 3.579 cumulative IPC: 3.503 (Simulation time: 02 hr 04 min 24 sec)
Heartbeat CPU 0 instructions: 270000002 cycles: 78078823 heartbeat IPC: 1.774 cumulative IPC: 3.355 (Simulation time: 02 hr 10 min 44 sec)
Heartbeat CPU 0 instructions: 280000000 cycles: 88204249 heartbeat IPC: 0.9876 cumulative IPC: 3.038 (Simulation time: 02 hr 20 min 01 sec)
Heartbeat CPU 0 instructions: 290000000 cycles: 97882084 heartbeat IPC: 1.033 cumulative IPC: 2.811 (Simulation time: 02 hr 29 min 05 sec)
Heartbeat CPU 0 instructions: 300000003 cycles: 103673387 heartbeat IPC: 1.727 cumulative IPC: 2.742 (Simulation time: 02 hr 35 min 52 sec)
Heartbeat CPU 0 instructions: 310000001 cycles: 113113682 heartbeat IPC: 1.059 cumulative IPC: 2.584 (Simulation time: 02 hr 44 min 57 sec)
Heartbeat CPU 0 instructions: 320000004 cycles: 117199440 heartbeat IPC: 2.448 cumulative IPC: 2.579 (Simulation time: 02 hr 50 min 29 sec)
Heartbeat CPU 0 instructions: 330000000 cycles: 120375071 heartbeat IPC: 3.149 cumulative IPC: 2.596 (Simulation time: 02 hr 55 min 20 sec)
Heartbeat CPU 0 instructions: 340000001 cycles: 123354538 heartbeat IPC: 3.356 cumulative IPC: 2.616 (Simulation time: 03 hr 00 min 06 sec)
Heartbeat CPU 0 instructions: 350000000 cycles: 126339427 heartbeat IPC: 3.35 cumulative IPC: 2.635 (Simulation time: 03 hr 04 min 50 sec)
Heartbeat CPU 0 instructions: 360000004 cycles: 129130597 heartbeat IPC: 3.583 cumulative IPC: 2.658 (Simulation time: 03 hr 09 min 30 sec)
Heartbeat CPU 0 instructions: 370000001 cycles: 131899983 heartbeat IPC: 3.611 cumulative IPC: 2.68 (Simulation time: 03 hr 14 min 09 sec)
Heartbeat CPU 0 instructions: 380000004 cycles: 134716142 heartbeat IPC: 3.551 cumulative IPC: 2.7 (Simulation time: 03 hr 18 min 55 sec)
Heartbeat CPU 0 instructions: 390000002 cycles: 137740478 heartbeat IPC: 3.307 cumulative IPC: 2.715 (Simulation time: 03 hr 23 min 44 sec)
Heartbeat CPU 0 instructions: 400000000 cycles: 140774254 heartbeat IPC: 3.296 cumulative IPC: 2.729 (Simulation time: 03 hr 28 min 31 sec)
Heartbeat CPU 0 instructions: 410000000 cycles: 147104178 heartbeat IPC: 1.58 cumulative IPC: 2.675 (Simulation time: 03 hr 35 min 27 sec)
Heartbeat CPU 0 instructions: 420000003 cycles: 157216910 heartbeat IPC: 0.9889 cumulative IPC: 2.557 (Simulation time: 03 hr 44 min 49 sec)
Heartbeat CPU 0 instructions: 430000004 cycles: 162972300 heartbeat IPC: 1.738 cumulative IPC: 2.525 (Simulation time: 03 hr 51 min 38 sec)
Heartbeat CPU 0 instructions: 440000004 cycles: 169492212 heartbeat IPC: 1.534 cumulative IPC: 2.484 (Simulation time: 03 hr 58 min 50 sec)
Heartbeat CPU 0 instructions: 450000000 cycles: 175194688 heartbeat IPC: 1.754 cumulative IPC: 2.459 (Simulation time: 04 hr 05 min 30 sec)
Heartbeat CPU 0 instructions: 460000002 cycles: 186839838 heartbeat IPC: 0.8587 cumulative IPC: 2.352 (Simulation time: 04 hr 15 min 48 sec)
Heartbeat CPU 0 instructions: 470000003 cycles: 195435874 heartbeat IPC: 1.163 cumulative IPC: 2.296 (Simulation time: 04 hr 24 min 18 sec)
Heartbeat CPU 0 instructions: 480000000 cycles: 198901372 heartbeat IPC: 2.886 cumulative IPC: 2.307 (Simulation time: 04 hr 29 min 30 sec)
Heartbeat CPU 0 instructions: 490000001 cycles: 201857244 heartbeat IPC: 3.383 cumulative IPC: 2.324 (Simulation time: 04 hr 34 min 14 sec)
Heartbeat CPU 0 instructions: 500000002 cycles: 204844067 heartbeat IPC: 3.348 cumulative IPC: 2.34 (Simulation time: 04 hr 38 min 59 sec)
Heartbeat CPU 0 instructions: 510000000 cycles: 207722547 heartbeat IPC: 3.474 cumulative IPC: 2.356 (Simulation time: 04 hr 43 min 40 sec)
Heartbeat CPU 0 instructions: 520000000 cycles: 210743938 heartbeat IPC: 3.31 cumulative IPC: 2.371 (Simulation time: 04 hr 48 min 25 sec)
Heartbeat CPU 0 instructions: 530000001 cycles: 220543190 heartbeat IPC: 1.02 cumulative IPC: 2.307 (Simulation time: 04 hr 57 min 33 sec)
Heartbeat CPU 0 instructions: 540000000 cycles: 231011310 heartbeat IPC: 0.9553 cumulative IPC: 2.242 (Simulation time: 05 hr 07 min 24 sec)
Heartbeat CPU 0 instructions: 550000004 cycles: 243693173 heartbeat IPC: 0.7885 cumulative IPC: 2.163 (Simulation time: 05 hr 18 min 40 sec)
Heartbeat CPU 0 instructions: 560000004 cycles: 247685599 heartbeat IPC: 2.505 cumulative IPC: 2.169 (Simulation time: 05 hr 24 min 12 sec)
Heartbeat CPU 0 instructions: 570000002 cycles: 250516066 heartbeat IPC: 3.533 cumulative IPC: 2.185 (Simulation time: 05 hr 29 min 04 sec)
Heartbeat CPU 0 instructions: 580000000 cycles: 253446949 heartbeat IPC: 3.412 cumulative IPC: 2.2 (Simulation time: 05 hr 33 min 58 sec)
Heartbeat CPU 0 instructions: 590000001 cycles: 256382870 heartbeat IPC: 3.406 cumulative IPC: 2.214 (Simulation time: 05 hr 38 min 48 sec)
Heartbeat CPU 0 instructions: 600000003 cycles: 259081967 heartbeat IPC: 3.705 cumulative IPC: 2.23 (Simulation time: 05 hr 43 min 31 sec)
Heartbeat CPU 0 instructions: 610000001 cycles: 261954521 heartbeat IPC: 3.481 cumulative IPC: 2.245 (Simulation time: 05 hr 48 min 18 sec)
Heartbeat CPU 0 instructions: 620000004 cycles: 264912495 heartbeat IPC: 3.381 cumulative IPC: 2.258 (Simulation time: 05 hr 52 min 52 sec)
Heartbeat CPU 0 instructions: 630000002 cycles: 267727034 heartbeat IPC: 3.553 cumulative IPC: 2.272 (Simulation time: 05 hr 57 min 04 sec)
Heartbeat CPU 0 instructions: 640000004 cycles: 270761892 heartbeat IPC: 3.295 cumulative IPC: 2.285 (Simulation time: 06 hr 01 min 02 sec)
Heartbeat CPU 0 instructions: 650000001 cycles: 273464456 heartbeat IPC: 3.7 cumulative IPC: 2.299 (Simulation time: 06 hr 04 min 52 sec)
Simulation finished CPU 0 instructions: 600000001 cycles: 260964395 cumulative IPC: 2.299 (Simulation time: 06 hr 04 min 52 sec)
Simulation complete CPU 0 instructions: 600000001 cycles: 260964395 cumulative IPC: 2.299 (Simulation time: 06 hr 04 min 52 sec)

ChampSim completed all CPUs

=== Simulation ===
CPU 0 runs traces/400.perlbench-50B.champsimtrace.xz
Region of Interest Statistics

CPU 0 cumulative IPC: 2.299 instructions: 600000001 cycles: 260964395
CPU 0 Branch Prediction Accuracy: 99.01% MPKI: 2.04 Average ROB Occupancy at Mispredict: 94.58
Branch type MPKI
BRANCH_DIRECT_JUMP: 0.0176
BRANCH_INDIRECT: 0.38
BRANCH_CONDITIONAL: 1.19
BRANCH_DIRECT_CALL: 0.0067
BRANCH_INDIRECT_CALL: 0.431
BRANCH_RETURN: 0.0161

LLC TOTAL        ACCESS:     889514 HIT:     256099 MISS:     633415
LLC LOAD         ACCESS:     377422 HIT:     125925 MISS:     251497
LLC RFO          ACCESS:      32689 HIT:       7636 MISS:      25053
LLC PREFETCH     ACCESS:     377422 HIT:     106504 MISS:     270918
LLC WRITE        ACCESS:      83861 HIT:      15239 MISS:      68622
LLC TRANSLATION  ACCESS:      18120 HIT:        795 MISS:      17325
LLC PREFETCH REQUESTED:     377422 ISSUED:     377422 USEFUL:      82593 USELESS:     123710
LLC AVERAGE MISS LATENCY: 595.4 cycles
cpu0_DTLB TOTAL        ACCESS:  133138567 HIT:  131786012 MISS:    1352555
cpu0_DTLB LOAD         ACCESS:  133138567 HIT:  131786012 MISS:    1352555
cpu0_DTLB RFO          ACCESS:          0 HIT:          0 MISS:          0
cpu0_DTLB PREFETCH     ACCESS:          0 HIT:          0 MISS:          0
cpu0_DTLB WRITE        ACCESS:          0 HIT:          0 MISS:          0
cpu0_DTLB TRANSLATION  ACCESS:          0 HIT:          0 MISS:          0
cpu0_DTLB PREFETCH REQUESTED:          0 ISSUED:          0 USEFUL:          0 USELESS:          0
cpu0_DTLB AVERAGE MISS LATENCY: 15.96 cycles
cpu0_ITLB TOTAL        ACCESS:    8989973 HIT:    8779622 MISS:     210351
cpu0_ITLB LOAD         ACCESS:    8989973 HIT:    8779622 MISS:     210351
cpu0_ITLB RFO          ACCESS:          0 HIT:          0 MISS:          0
cpu0_ITLB PREFETCH     ACCESS:          0 HIT:          0 MISS:          0
cpu0_ITLB WRITE        ACCESS:          0 HIT:          0 MISS:          0
cpu0_ITLB TRANSLATION  ACCESS:          0 HIT:          0 MISS:          0
cpu0_ITLB PREFETCH REQUESTED:          0 ISSUED:          0 USEFUL:          0 USELESS:          0
cpu0_ITLB AVERAGE MISS LATENCY: 3.667 cycles
cpu0_L1D TOTAL        ACCESS:  178211981 HIT:  175274900 MISS:    2937081
cpu0_L1D LOAD         ACCESS:   92694148 HIT:   90287333 MISS:    2406815
cpu0_L1D RFO          ACCESS:          0 HIT:          0 MISS:          0
cpu0_L1D PREFETCH     ACCESS:          0 HIT:          0 MISS:          0
cpu0_L1D WRITE        ACCESS:   85489295 HIT:   84985558 MISS:     503737
cpu0_L1D TRANSLATION  ACCESS:      28538 HIT:       2009 MISS:      26529
cpu0_L1D PREFETCH REQUESTED:          0 ISSUED:          0 USEFUL:          0 USELESS:          0
cpu0_L1D AVERAGE MISS LATENCY: 70.77 cycles
cpu0_L1I TOTAL        ACCESS:   10509932 HIT:    8609991 MISS:    1899941
cpu0_L1I LOAD         ACCESS:   10509932 HIT:    8609991 MISS:    1899941
cpu0_L1I RFO          ACCESS:          0 HIT:          0 MISS:          0
cpu0_L1I PREFETCH     ACCESS:          0 HIT:          0 MISS:          0
cpu0_L1I WRITE        ACCESS:          0 HIT:          0 MISS:          0
cpu0_L1I TRANSLATION  ACCESS:          0 HIT:          0 MISS:          0
cpu0_L1I PREFETCH REQUESTED:          0 ISSUED:          0 USEFUL:          0 USELESS:          0
cpu0_L1I AVERAGE MISS LATENCY: 14.64 cycles
cpu0_L2C TOTAL        ACCESS:    3235930 HIT:    2806750 MISS:     429180
cpu0_L2C LOAD         ACCESS:    2709115 HIT:    2331693 MISS:     377422
cpu0_L2C RFO          ACCESS:     135558 HIT:     102869 MISS:      32689
cpu0_L2C PREFETCH     ACCESS:          0 HIT:          0 MISS:          0
cpu0_L2C WRITE        ACCESS:     364814 HIT:     363865 MISS:        949
cpu0_L2C TRANSLATION  ACCESS:      26443 HIT:       8323 MISS:      18120
cpu0_L2C PREFETCH REQUESTED:          0 ISSUED:          0 USEFUL:          0 USELESS:          0
cpu0_L2C AVERAGE MISS LATENCY: 514.8 cycles
cpu0_STLB TOTAL        ACCESS:    1010063 HIT:     983371 MISS:      26692
cpu0_STLB LOAD         ACCESS:    1010063 HIT:     983371 MISS:      26692
cpu0_STLB RFO          ACCESS:          0 HIT:          0 MISS:          0
cpu0_STLB PREFETCH     ACCESS:          0 HIT:          0 MISS:          0
cpu0_STLB WRITE        ACCESS:          0 HIT:          0 MISS:          0
cpu0_STLB TRANSLATION  ACCESS:          0 HIT:          0 MISS:          0
cpu0_STLB PREFETCH REQUESTED:          0 ISSUED:          0 USEFUL:          0 USELESS:          0
cpu0_STLB AVERAGE MISS LATENCY: 623.8 cycles

DRAM Statistics

Channel 0 RQ ROW_BUFFER_HIT:      81013
  ROW_BUFFER_MISS:     401424
 AVG DBUS CONGESTED CYCLE: 3.906
WQ ROW_BUFFER_HIT: Channel 0 
  ROW_BUFFER_MISS:       5764
  FULL:      63917
