WARNING: physical memory size is smaller than virtual memory size.

*** ChampSim Multicore Out-of-Order Simulator ***
Warmup Instructions: 50000000
Simulation Instructions: 600000000
Number of CPUs: 1
Page size: 4096

Off-chip DRAM Size: 4 GiB Channels: 1 Width: 64-bit Data Race: 3200 MT/s
Heartbeat CPU 0 instructions: 10000000 cycles: 2500061 heartbeat IPC: 4 cumulative IPC: 4 (Simulation time: 00 hr 03 min 33 sec)
Heartbeat CPU 0 instructions: 20000000 cycles: 5000061 heartbeat IPC: 4 cumulative IPC: 4 (Simulation time: 00 hr 07 min 05 sec)
Heartbeat CPU 0 instructions: 30000000 cycles: 7500061 heartbeat IPC: 4 cumulative IPC: 4 (Simulation time: 00 hr 10 min 34 sec)
Heartbeat CPU 0 instructions: 40000000 cycles: 10000061 heartbeat IPC: 4 cumulative IPC: 4 (Simulation time: 00 hr 13 min 54 sec)
Heartbeat CPU 0 instructions: 50000000 cycles: 12500061 heartbeat IPC: 4 cumulative IPC: 4 (Simulation time: 00 hr 17 min 27 sec)
Warmup finished CPU 0 instructions: 50000000 cycles: 12500062 cumulative IPC: 4 (Simulation time: 00 hr 17 min 27 sec)
Warmup complete CPU 0 instructions: 50000000 cycles: 12500062 cumulative IPC: 4 (Simulation time: 00 hr 17 min 27 sec)
Heartbeat CPU 0 instructions: 60000002 cycles: 16896553 heartbeat IPC: 2.275 cumulative IPC: 2.275 (Simulation time: 00 hr 22 min 44 sec)
Heartbeat CPU 0 instructions: 70000003 cycles: 21873166 heartbeat IPC: 2.009 cumulative IPC: 2.134 (Simulation time: 00 hr 27 min 54 sec)
Heartbeat CPU 0 instructions: 80000001 cycles: 27215142 heartbeat IPC: 1.872 cumulative IPC: 2.039 (Simulation time: 00 hr 33 min 22 sec)
Heartbeat CPU 0 instructions: 90000000 cycles: 31509834 heartbeat IPC: 2.328 cumulative IPC: 2.104 (Simulation time: 00 hr 38 min 06 sec)
Heartbeat CPU 0 instructions: 100000003 cycles: 36357541 heartbeat IPC: 2.063 cumulative IPC: 2.096 (Simulation time: 00 hr 42 min 52 sec)
Heartbeat CPU 0 instructions: 110000002 cycles: 41219449 heartbeat IPC: 2.057 cumulative IPC: 2.089 (Simulation time: 00 hr 47 min 22 sec)
Heartbeat CPU 0 instructions: 120000001 cycles: 46211655 heartbeat IPC: 2.003 cumulative IPC: 2.076 (Simulation time: 00 hr 51 min 46 sec)
Heartbeat CPU 0 instructions: 130000003 cycles: 50769930 heartbeat IPC: 2.194 cumulative IPC: 2.09 (Simulation time: 00 hr 55 min 53 sec)
Heartbeat CPU 0 instructions: 140000002 cycles: 55652318 heartbeat IPC: 2.048 cumulative IPC: 2.086 (Simulation time: 01 hr 00 min 01 sec)
Heartbeat CPU 0 instructions: 150000001 cycles: 60310577 heartbeat IPC: 2.147 cumulative IPC: 2.092 (Simulation time: 01 hr 04 min 01 sec)
Heartbeat CPU 0 instructions: 160000000 cycles: 64939148 heartbeat IPC: 2.16 cumulative IPC: 2.098 (Simulation time: 01 hr 08 min 02 sec)
Heartbeat CPU 0 instructions: 170000000 cycles: 70264099 heartbeat IPC: 1.878 cumulative IPC: 2.077 (Simulation time: 01 hr 12 min 23 sec)
Heartbeat CPU 0 instructions: 180000001 cycles: 75978014 heartbeat IPC: 1.75 cumulative IPC: 2.048 (Simulation time: 01 hr 16 min 57 sec)
Heartbeat CPU 0 instructions: 190000002 cycles: 80439084 heartbeat IPC: 2.242 cumulative IPC: 2.061 (Simulation time: 01 hr 20 min 58 sec)
Heartbeat CPU 0 instructions: 200000002 cycles: 85328891 heartbeat IPC: 2.045 cumulative IPC: 2.06 (Simulation time: 01 hr 25 min 08 sec)
Heartbeat CPU 0 instructions: 210000000 cycles: 90326289 heartbeat IPC: 2.001 cumulative IPC: 2.056 (Simulation time: 01 hr 29 min 19 sec)
Heartbeat CPU 0 instructions: 220000001 cycles: 95248897 heartbeat IPC: 2.031 cumulative IPC: 2.054 (Simulation time: 01 hr 33 min 29 sec)
Heartbeat CPU 0 instructions: 230000002 cycles: 100487110 heartbeat IPC: 1.909 cumulative IPC: 2.046 (Simulation time: 01 hr 37 min 45 sec)
Heartbeat CPU 0 instructions: 240000001 cycles: 105445975 heartbeat IPC: 2.017 cumulative IPC: 2.044 (Simulation time: 01 hr 41 min 58 sec)
Heartbeat CPU 0 instructions: 250000003 cycles: 110625553 heartbeat IPC: 1.931 cumulative IPC: 2.038 (Simulation time: 01 hr 46 min 10 sec)
Heartbeat CPU 0 instructions: 260000001 cycles: 115488731 heartbeat IPC: 2.056 cumulative IPC: 2.039 (Simulation time: 01 hr 50 min 18 sec)
Heartbeat CPU 0 instructions: 270000000 cycles: 122860274 heartbeat IPC: 1.357 cumulative IPC: 1.993 (Simulation time: 01 hr 55 min 47 sec)
Heartbeat CPU 0 instructions: 280000000 cycles: 134093337 heartbeat IPC: 0.8902 cumulative IPC: 1.892 (Simulation time: 02 hr 03 min 24 sec)
Heartbeat CPU 0 instructions: 290000001 cycles: 143840142 heartbeat IPC: 1.026 cumulative IPC: 1.827 (Simulation time: 02 hr 10 min 11 sec)
Heartbeat CPU 0 instructions: 300000003 cycles: 151300565 heartbeat IPC: 1.34 cumulative IPC: 1.801 (Simulation time: 02 hr 16 min 02 sec)
Heartbeat CPU 0 instructions: 310000004 cycles: 162313259 heartbeat IPC: 0.908 cumulative IPC: 1.735 (Simulation time: 02 hr 23 min 45 sec)
Heartbeat CPU 0 instructions: 320000004 cycles: 168010454 heartbeat IPC: 1.755 cumulative IPC: 1.736 (Simulation time: 02 hr 28 min 34 sec)
Heartbeat CPU 0 instructions: 330000000 cycles: 173305326 heartbeat IPC: 1.889 cumulative IPC: 1.741 (Simulation time: 02 hr 33 min 06 sec)
Heartbeat CPU 0 instructions: 340000001 cycles: 178537171 heartbeat IPC: 1.911 cumulative IPC: 1.747 (Simulation time: 02 hr 37 min 31 sec)
Heartbeat CPU 0 instructions: 350000000 cycles: 183945418 heartbeat IPC: 1.849 cumulative IPC: 1.75 (Simulation time: 02 hr 42 min 09 sec)
Heartbeat CPU 0 instructions: 360000003 cycles: 189147492 heartbeat IPC: 1.922 cumulative IPC: 1.755 (Simulation time: 02 hr 46 min 33 sec)
Heartbeat CPU 0 instructions: 370000001 cycles: 194256698 heartbeat IPC: 1.957 cumulative IPC: 1.761 (Simulation time: 02 hr 50 min 56 sec)
Heartbeat CPU 0 instructions: 380000004 cycles: 199658441 heartbeat IPC: 1.851 cumulative IPC: 1.763 (Simulation time: 02 hr 55 min 30 sec)
Heartbeat CPU 0 instructions: 390000002 cycles: 205184706 heartbeat IPC: 1.81 cumulative IPC: 1.765 (Simulation time: 03 hr 00 min 06 sec)
Heartbeat CPU 0 instructions: 400000000 cycles: 210704775 heartbeat IPC: 1.812 cumulative IPC: 1.766 (Simulation time: 03 hr 04 min 40 sec)
Heartbeat CPU 0 instructions: 410000000 cycles: 219024174 heartbeat IPC: 1.202 cumulative IPC: 1.743 (Simulation time: 03 hr 10 min 49 sec)
Heartbeat CPU 0 instructions: 420000001 cycles: 230444546 heartbeat IPC: 0.8756 cumulative IPC: 1.698 (Simulation time: 03 hr 18 min 34 sec)
Heartbeat CPU 0 instructions: 430000000 cycles: 238085160 heartbeat IPC: 1.309 cumulative IPC: 1.685 (Simulation time: 03 hr 24 min 35 sec)
Heartbeat CPU 0 instructions: 440000002 cycles: 245746348 heartbeat IPC: 1.305 cumulative IPC: 1.672 (Simulation time: 03 hr 30 min 31 sec)
Heartbeat CPU 0 instructions: 450000000 cycles: 252677319 heartbeat IPC: 1.443 cumulative IPC: 1.665 (Simulation time: 03 hr 36 min 08 sec)
Heartbeat CPU 0 instructions: 460000002 cycles: 264073938 heartbeat IPC: 0.8775 cumulative IPC: 1.63 (Simulation time: 03 hr 43 min 58 sec)
Heartbeat CPU 0 instructions: 470000000 cycles: 274468897 heartbeat IPC: 0.962 cumulative IPC: 1.603 (Simulation time: 03 hr 51 min 23 sec)
Heartbeat CPU 0 instructions: 480000000 cycles: 280051345 heartbeat IPC: 1.791 cumulative IPC: 1.607 (Simulation time: 03 hr 56 min 00 sec)
Heartbeat CPU 0 instructions: 490000001 cycles: 285859170 heartbeat IPC: 1.722 cumulative IPC: 1.61 (Simulation time: 04 hr 00 min 43 sec)
Heartbeat CPU 0 instructions: 500000002 cycles: 291616891 heartbeat IPC: 1.737 cumulative IPC: 1.612 (Simulation time: 04 hr 05 min 21 sec)
Heartbeat CPU 0 instructions: 510000000 cycles: 297414927 heartbeat IPC: 1.725 cumulative IPC: 1.615 (Simulation time: 04 hr 10 min 05 sec)
Heartbeat CPU 0 instructions: 520000000 cycles: 303246406 heartbeat IPC: 1.715 cumulative IPC: 1.617 (Simulation time: 04 hr 14 min 48 sec)
Heartbeat CPU 0 instructions: 530000001 cycles: 315029058 heartbeat IPC: 0.8487 cumulative IPC: 1.587 (Simulation time: 04 hr 22 min 45 sec)
Heartbeat CPU 0 instructions: 540000000 cycles: 326161544 heartbeat IPC: 0.8983 cumulative IPC: 1.562 (Simulation time: 04 hr 30 min 32 sec)
Heartbeat CPU 0 instructions: 550000002 cycles: 339808237 heartbeat IPC: 0.7328 cumulative IPC: 1.528 (Simulation time: 04 hr 38 min 58 sec)
Heartbeat CPU 0 instructions: 560000004 cycles: 344761735 heartbeat IPC: 2.019 cumulative IPC: 1.535 (Simulation time: 04 hr 42 min 43 sec)
Heartbeat CPU 0 instructions: 570000001 cycles: 349179504 heartbeat IPC: 2.264 cumulative IPC: 1.544 (Simulation time: 04 hr 46 min 15 sec)
Heartbeat CPU 0 instructions: 580000003 cycles: 353428663 heartbeat IPC: 2.353 cumulative IPC: 1.555 (Simulation time: 04 hr 49 min 31 sec)
Heartbeat CPU 0 instructions: 590000001 cycles: 358343066 heartbeat IPC: 2.035 cumulative IPC: 1.561 (Simulation time: 04 hr 52 min 46 sec)
Heartbeat CPU 0 instructions: 600000003 cycles: 362994876 heartbeat IPC: 2.15 cumulative IPC: 1.569 (Simulation time: 04 hr 55 min 44 sec)
Heartbeat CPU 0 instructions: 610000001 cycles: 367869578 heartbeat IPC: 2.051 cumulative IPC: 1.576 (Simulation time: 04 hr 58 min 24 sec)
Heartbeat CPU 0 instructions: 620000000 cycles: 372941081 heartbeat IPC: 1.972 cumulative IPC: 1.581 (Simulation time: 05 hr 00 min 51 sec)
Heartbeat CPU 0 instructions: 630000002 cycles: 377190377 heartbeat IPC: 2.353 cumulative IPC: 1.59 (Simulation time: 05 hr 02 min 50 sec)
Heartbeat CPU 0 instructions: 640000004 cycles: 382518096 heartbeat IPC: 1.877 cumulative IPC: 1.595 (Simulation time: 05 hr 04 min 34 sec)
Heartbeat CPU 0 instructions: 650000001 cycles: 387280511 heartbeat IPC: 2.1 cumulative IPC: 1.601 (Simulation time: 05 hr 06 min 02 sec)
Simulation finished CPU 0 instructions: 600000001 cycles: 374780450 cumulative IPC: 1.601 (Simulation time: 05 hr 06 min 02 sec)
Simulation complete CPU 0 instructions: 600000001 cycles: 374780450 cumulative IPC: 1.601 (Simulation time: 05 hr 06 min 02 sec)

ChampSim completed all CPUs

=== Simulation ===
CPU 0 runs traces/400.perlbench-50B.champsimtrace.xz
Region of Interest Statistics

CPU 0 cumulative IPC: 1.601 instructions: 600000001 cycles: 374780450
CPU 0 Branch Prediction Accuracy: 93.83% MPKI: 12.71 Average ROB Occupancy at Mispredict: 29.24
Branch type MPKI
BRANCH_DIRECT_JUMP: 0.0176
BRANCH_INDIRECT: 0.38
BRANCH_CONDITIONAL: 11.9
BRANCH_DIRECT_CALL: 0.0067
BRANCH_INDIRECT_CALL: 0.431
BRANCH_RETURN: 0.0161

LLC TOTAL        ACCESS:     889612 HIT:     342154 MISS:     547458
LLC LOAD         ACCESS:     377163 HIT:     136078 MISS:     241085
LLC RFO          ACCESS:      32777 HIT:      12241 MISS:      20536
LLC PREFETCH     ACCESS:     377163 HIT:     123415 MISS:     253748
LLC WRITE        ACCESS:      84352 HIT:      65009 MISS:      19343
LLC TRANSLATION  ACCESS:      18157 HIT:       5411 MISS:      12746
LLC PREFETCH REQUESTED:     377163 ISSUED:     377163 USEFUL:      77363 USELESS:      66754
LLC AVERAGE MISS LATENCY: 535.5 cycles
cpu0_DTLB TOTAL        ACCESS:  156752059 HIT:  155451902 MISS:    1300157
cpu0_DTLB LOAD         ACCESS:  156752059 HIT:  155451902 MISS:    1300157
cpu0_DTLB RFO          ACCESS:          0 HIT:          0 MISS:          0
cpu0_DTLB PREFETCH     ACCESS:          0 HIT:          0 MISS:          0
cpu0_DTLB WRITE        ACCESS:          0 HIT:          0 MISS:          0
cpu0_DTLB TRANSLATION  ACCESS:          0 HIT:          0 MISS:          0
cpu0_DTLB PREFETCH REQUESTED:          0 ISSUED:          0 USEFUL:          0 USELESS:          0
cpu0_DTLB AVERAGE MISS LATENCY: 13.29 cycles
cpu0_ITLB TOTAL        ACCESS:    8932530 HIT:    8733710 MISS:     198820
cpu0_ITLB LOAD         ACCESS:    8932530 HIT:    8733710 MISS:     198820
cpu0_ITLB RFO          ACCESS:          0 HIT:          0 MISS:          0
cpu0_ITLB PREFETCH     ACCESS:          0 HIT:          0 MISS:          0
cpu0_ITLB WRITE        ACCESS:          0 HIT:          0 MISS:          0
cpu0_ITLB TRANSLATION  ACCESS:          0 HIT:          0 MISS:          0
cpu0_ITLB PREFETCH REQUESTED:          0 ISSUED:          0 USEFUL:          0 USELESS:          0
cpu0_ITLB AVERAGE MISS LATENCY: 3.411 cycles
cpu0_L1D TOTAL        ACCESS:  203632067 HIT:  200784836 MISS:    2847231
cpu0_L1D LOAD         ACCESS:  117955645 HIT:  115618766 MISS:    2336879
cpu0_L1D RFO          ACCESS:          0 HIT:          0 MISS:          0
cpu0_L1D PREFETCH     ACCESS:          0 HIT:          0 MISS:          0
cpu0_L1D WRITE        ACCESS:   85647885 HIT:   85164078 MISS:     483807
cpu0_L1D TRANSLATION  ACCESS:      28537 HIT:       1992 MISS:      26545
cpu0_L1D PREFETCH REQUESTED:          0 ISSUED:          0 USEFUL:          0 USELESS:          0
cpu0_L1D AVERAGE MISS LATENCY: 61.03 cycles
cpu0_L1I TOTAL        ACCESS:   10371267 HIT:    8572314 MISS:    1798953
cpu0_L1I LOAD         ACCESS:   10371267 HIT:    8572314 MISS:    1798953
cpu0_L1I RFO          ACCESS:          0 HIT:          0 MISS:          0
cpu0_L1I PREFETCH     ACCESS:          0 HIT:          0 MISS:          0
cpu0_L1I WRITE        ACCESS:          0 HIT:          0 MISS:          0
cpu0_L1I TRANSLATION  ACCESS:          0 HIT:          0 MISS:          0
cpu0_L1I PREFETCH REQUESTED:          0 ISSUED:          0 USEFUL:          0 USELESS:          0
cpu0_L1I AVERAGE MISS LATENCY: 11.22 cycles
cpu0_L2C TOTAL        ACCESS:    3235404 HIT:    2806376 MISS:     429028
cpu0_L2C LOAD         ACCESS:    2711752 HIT:    2334589 MISS:     377163
cpu0_L2C RFO          ACCESS:     133706 HIT:     100929 MISS:      32777
cpu0_L2C PREFETCH     ACCESS:          0 HIT:          0 MISS:          0
cpu0_L2C WRITE        ACCESS:     363483 HIT:     362552 MISS:        931
cpu0_L2C TRANSLATION  ACCESS:      26463 HIT:       8306 MISS:      18157
cpu0_L2C PREFETCH REQUESTED:          0 ISSUED:          0 USEFUL:          0 USELESS:          0
cpu0_L2C AVERAGE MISS LATENCY: 401 cycles
cpu0_STLB TOTAL        ACCESS:    1009153 HIT:     982463 MISS:      26690
cpu0_STLB LOAD         ACCESS:    1009153 HIT:     982463 MISS:      26690
cpu0_STLB RFO          ACCESS:          0 HIT:          0 MISS:          0
cpu0_STLB PREFETCH     ACCESS:          0 HIT:          0 MISS:          0
cpu0_STLB WRITE        ACCESS:          0 HIT:          0 MISS:          0
cpu0_STLB TRANSLATION  ACCESS:          0 HIT:          0 MISS:          0
cpu0_STLB PREFETCH REQUESTED:          0 ISSUED:          0 USEFUL:          0 USELESS:          0
cpu0_STLB AVERAGE MISS LATENCY: 431 cycles

DRAM Statistics

Channel 0 RQ ROW_BUFFER_HIT:      94472
  ROW_BUFFER_MISS:     360738
 AVG DBUS CONGESTED CYCLE: 3.865
WQ ROW_BUFFER_HIT: Channel 0 
  ROW_BUFFER_MISS:       6995
  FULL:      46919
