WARNING: physical memory size is smaller than virtual memory size.

*** ChampSim Multicore Out-of-Order Simulator ***
Warmup Instructions: 50000000
Simulation Instructions: 600000000
Number of CPUs: 1
Page size: 4096

Off-chip DRAM Size: 4 GiB Channels: 1 Width: 64-bit Data Race: 3200 MT/s
Heartbeat CPU 0 instructions: 10000000 cycles: 2500061 heartbeat IPC: 4 cumulative IPC: 4 (Simulation time: 00 hr 03 min 40 sec)
Heartbeat CPU 0 instructions: 20000000 cycles: 5000061 heartbeat IPC: 4 cumulative IPC: 4 (Simulation time: 00 hr 07 min 03 sec)
Heartbeat CPU 0 instructions: 30000000 cycles: 7500061 heartbeat IPC: 4 cumulative IPC: 4 (Simulation time: 00 hr 10 min 26 sec)
Heartbeat CPU 0 instructions: 40000000 cycles: 10000061 heartbeat IPC: 4 cumulative IPC: 4 (Simulation time: 00 hr 13 min 49 sec)
Heartbeat CPU 0 instructions: 50000000 cycles: 12500061 heartbeat IPC: 4 cumulative IPC: 4 (Simulation time: 00 hr 17 min 15 sec)
Warmup finished CPU 0 instructions: 50000000 cycles: 12500062 cumulative IPC: 4 (Simulation time: 00 hr 17 min 15 sec)
Warmup complete CPU 0 instructions: 50000000 cycles: 12500062 cumulative IPC: 4 (Simulation time: 00 hr 17 min 15 sec)
Heartbeat CPU 0 instructions: 60000002 cycles: 16444059 heartbeat IPC: 2.535 cumulative IPC: 2.535 (Simulation time: 00 hr 21 min 56 sec)
Heartbeat CPU 0 instructions: 70000003 cycles: 20759418 heartbeat IPC: 2.317 cumulative IPC: 2.421 (Simulation time: 00 hr 26 min 49 sec)
Heartbeat CPU 0 instructions: 80000003 cycles: 25227156 heartbeat IPC: 2.238 cumulative IPC: 2.357 (Simulation time: 00 hr 31 min 47 sec)
Heartbeat CPU 0 instructions: 90000000 cycles: 28918806 heartbeat IPC: 2.709 cumulative IPC: 2.436 (Simulation time: 00 hr 36 min 20 sec)
Heartbeat CPU 0 instructions: 100000003 cycles: 32815684 heartbeat IPC: 2.566 cumulative IPC: 2.461 (Simulation time: 00 hr 40 min 58 sec)
Heartbeat CPU 0 instructions: 110000002 cycles: 36916725 heartbeat IPC: 2.438 cumulative IPC: 2.457 (Simulation time: 00 hr 45 min 41 sec)
Heartbeat CPU 0 instructions: 120000001 cycles: 40632503 heartbeat IPC: 2.691 cumulative IPC: 2.488 (Simulation time: 00 hr 50 min 14 sec)
Heartbeat CPU 0 instructions: 130000003 cycles: 44402470 heartbeat IPC: 2.653 cumulative IPC: 2.508 (Simulation time: 00 hr 54 min 51 sec)
Heartbeat CPU 0 instructions: 140000002 cycles: 48535204 heartbeat IPC: 2.42 cumulative IPC: 2.498 (Simulation time: 00 hr 59 min 35 sec)
Heartbeat CPU 0 instructions: 150000001 cycles: 52587469 heartbeat IPC: 2.468 cumulative IPC: 2.495 (Simulation time: 01 hr 04 min 16 sec)
Heartbeat CPU 0 instructions: 160000000 cycles: 56245523 heartbeat IPC: 2.734 cumulative IPC: 2.515 (Simulation time: 01 hr 08 min 54 sec)
Heartbeat CPU 0 instructions: 170000001 cycles: 60418847 heartbeat IPC: 2.396 cumulative IPC: 2.504 (Simulation time: 01 hr 13 min 42 sec)
Heartbeat CPU 0 instructions: 180000001 cycles: 63878543 heartbeat IPC: 2.89 cumulative IPC: 2.53 (Simulation time: 01 hr 18 min 07 sec)
Heartbeat CPU 0 instructions: 190000002 cycles: 67461907 heartbeat IPC: 2.791 cumulative IPC: 2.547 (Simulation time: 01 hr 22 min 39 sec)
Heartbeat CPU 0 instructions: 200000002 cycles: 71245565 heartbeat IPC: 2.643 cumulative IPC: 2.553 (Simulation time: 01 hr 27 min 17 sec)
Heartbeat CPU 0 instructions: 210000000 cycles: 74884203 heartbeat IPC: 2.748 cumulative IPC: 2.565 (Simulation time: 01 hr 31 min 46 sec)
Heartbeat CPU 0 instructions: 220000001 cycles: 78749851 heartbeat IPC: 2.587 cumulative IPC: 2.566 (Simulation time: 01 hr 36 min 22 sec)
Heartbeat CPU 0 instructions: 230000002 cycles: 82590317 heartbeat IPC: 2.604 cumulative IPC: 2.568 (Simulation time: 01 hr 41 min 02 sec)
Heartbeat CPU 0 instructions: 240000001 cycles: 86794318 heartbeat IPC: 2.379 cumulative IPC: 2.557 (Simulation time: 01 hr 45 min 50 sec)
Heartbeat CPU 0 instructions: 250000003 cycles: 91359984 heartbeat IPC: 2.19 cumulative IPC: 2.536 (Simulation time: 01 hr 50 min 48 sec)
Heartbeat CPU 0 instructions: 260000000 cycles: 95152907 heartbeat IPC: 2.636 cumulative IPC: 2.541 (Simulation time: 01 hr 55 min 25 sec)
Heartbeat CPU 0 instructions: 270000003 cycles: 102313822 heartbeat IPC: 1.396 cumulative IPC: 2.45 (Simulation time: 02 hr 02 min 14 sec)
Heartbeat CPU 0 instructions: 280000000 cycles: 113710876 heartbeat IPC: 0.8774 cumulative IPC: 2.272 (Simulation time: 02 hr 11 min 50 sec)
Heartbeat CPU 0 instructions: 290000000 cycles: 123670791 heartbeat IPC: 1.004 cumulative IPC: 2.159 (Simulation time: 02 hr 20 min 36 sec)
Heartbeat CPU 0 instructions: 300000003 cycles: 130913188 heartbeat IPC: 1.381 cumulative IPC: 2.111 (Simulation time: 02 hr 27 min 49 sec)
Heartbeat CPU 0 instructions: 310000004 cycles: 141713569 heartbeat IPC: 0.9259 cumulative IPC: 2.012 (Simulation time: 02 hr 37 min 19 sec)
Heartbeat CPU 0 instructions: 320000004 cycles: 146697921 heartbeat IPC: 2.006 cumulative IPC: 2.012 (Simulation time: 02 hr 42 min 52 sec)
Heartbeat CPU 0 instructions: 330000000 cycles: 150773223 heartbeat IPC: 2.454 cumulative IPC: 2.025 (Simulation time: 02 hr 47 min 43 sec)
Heartbeat CPU 0 instructions: 340000001 cycles: 155091277 heartbeat IPC: 2.316 cumulative IPC: 2.034 (Simulation time: 02 hr 52 min 43 sec)
Heartbeat CPU 0 instructions: 350000004 cycles: 159539751 heartbeat IPC: 2.248 cumulative IPC: 2.04 (Simulation time: 02 hr 57 min 51 sec)
Heartbeat CPU 0 instructions: 360000003 cycles: 163696266 heartbeat IPC: 2.406 cumulative IPC: 2.05 (Simulation time: 03 hr 02 min 49 sec)
Heartbeat CPU 0 instructions: 370000001 cycles: 167757536 heartbeat IPC: 2.462 cumulative IPC: 2.061 (Simulation time: 03 hr 07 min 39 sec)
Heartbeat CPU 0 instructions: 380000004 cycles: 171669322 heartbeat IPC: 2.556 cumulative IPC: 2.073 (Simulation time: 03 hr 12 min 26 sec)
Heartbeat CPU 0 instructions: 390000002 cycles: 175778432 heartbeat IPC: 2.434 cumulative IPC: 2.082 (Simulation time: 03 hr 17 min 20 sec)
Heartbeat CPU 0 instructions: 400000000 cycles: 180151786 heartbeat IPC: 2.287 cumulative IPC: 2.088 (Simulation time: 03 hr 22 min 26 sec)
Heartbeat CPU 0 instructions: 410000000 cycles: 187675031 heartbeat IPC: 1.329 cumulative IPC: 2.055 (Simulation time: 03 hr 29 min 35 sec)
Heartbeat CPU 0 instructions: 420000003 cycles: 198802207 heartbeat IPC: 0.8987 cumulative IPC: 1.986 (Simulation time: 03 hr 38 min 59 sec)
Heartbeat CPU 0 instructions: 430000000 cycles: 206446455 heartbeat IPC: 1.308 cumulative IPC: 1.959 (Simulation time: 03 hr 46 min 26 sec)
Heartbeat CPU 0 instructions: 440000004 cycles: 213021377 heartbeat IPC: 1.521 cumulative IPC: 1.945 (Simulation time: 03 hr 53 min 08 sec)
Heartbeat CPU 0 instructions: 450000000 cycles: 219673061 heartbeat IPC: 1.503 cumulative IPC: 1.931 (Simulation time: 03 hr 59 min 51 sec)
Heartbeat CPU 0 instructions: 460000002 cycles: 230135254 heartbeat IPC: 0.9558 cumulative IPC: 1.884 (Simulation time: 04 hr 09 min 00 sec)
Heartbeat CPU 0 instructions: 470000003 cycles: 239109308 heartbeat IPC: 1.114 cumulative IPC: 1.853 (Simulation time: 04 hr 17 min 11 sec)
Heartbeat CPU 0 instructions: 480000003 cycles: 243400106 heartbeat IPC: 2.331 cumulative IPC: 1.862 (Simulation time: 04 hr 22 min 12 sec)
Heartbeat CPU 0 instructions: 490000001 cycles: 248143020 heartbeat IPC: 2.108 cumulative IPC: 1.867 (Simulation time: 04 hr 27 min 30 sec)
Heartbeat CPU 0 instructions: 500000002 cycles: 252639889 heartbeat IPC: 2.224 cumulative IPC: 1.874 (Simulation time: 04 hr 32 min 39 sec)
Heartbeat CPU 0 instructions: 510000000 cycles: 256920830 heartbeat IPC: 2.336 cumulative IPC: 1.882 (Simulation time: 04 hr 37 min 40 sec)
Heartbeat CPU 0 instructions: 520000000 cycles: 261398509 heartbeat IPC: 2.233 cumulative IPC: 1.888 (Simulation time: 04 hr 42 min 48 sec)
Heartbeat CPU 0 instructions: 530000001 cycles: 272849813 heartbeat IPC: 0.8733 cumulative IPC: 1.844 (Simulation time: 04 hr 52 min 47 sec)
Heartbeat CPU 0 instructions: 540000000 cycles: 283837549 heartbeat IPC: 0.9101 cumulative IPC: 1.806 (Simulation time: 05 hr 02 min 23 sec)
Heartbeat CPU 0 instructions: 550000004 cycles: 296179758 heartbeat IPC: 0.8102 cumulative IPC: 1.763 (Simulation time: 05 hr 12 min 54 sec)
Heartbeat CPU 0 instructions: 560000004 cycles: 300360412 heartbeat IPC: 2.392 cumulative IPC: 1.772 (Simulation time: 05 hr 17 min 59 sec)
Heartbeat CPU 0 instructions: 570000001 cycles: 303488995 heartbeat IPC: 3.196 cumulative IPC: 1.787 (Simulation time: 05 hr 22 min 29 sec)
Heartbeat CPU 0 instructions: 580000003 cycles: 307033951 heartbeat IPC: 2.821 cumulative IPC: 1.799 (Simulation time: 05 hr 27 min 05 sec)
Heartbeat CPU 0 instructions: 590000002 cycles: 310658274 heartbeat IPC: 2.759 cumulative IPC: 1.811 (Simulation time: 05 hr 32 min 03 sec)
Heartbeat CPU 0 instructions: 600000003 cycles: 313723393 heartbeat IPC: 3.263 cumulative IPC: 1.826 (Simulation time: 05 hr 36 min 23 sec)
Heartbeat CPU 0 instructions: 610000001 cycles: 317234659 heartbeat IPC: 2.848 cumulative IPC: 1.838 (Simulation time: 05 hr 41 min 08 sec)
Heartbeat CPU 0 instructions: 620000000 cycles: 321252178 heartbeat IPC: 2.489 cumulative IPC: 1.846 (Simulation time: 05 hr 45 min 55 sec)
Heartbeat CPU 0 instructions: 630000002 cycles: 324620593 heartbeat IPC: 2.969 cumulative IPC: 1.858 (Simulation time: 05 hr 50 min 13 sec)
Heartbeat CPU 0 instructions: 640000004 cycles: 328636177 heartbeat IPC: 2.49 cumulative IPC: 1.866 (Simulation time: 05 hr 54 min 30 sec)
Heartbeat CPU 0 instructions: 650000001 cycles: 332460423 heartbeat IPC: 2.615 cumulative IPC: 1.875 (Simulation time: 05 hr 58 min 31 sec)
Simulation finished CPU 0 instructions: 600000001 cycles: 319960362 cumulative IPC: 1.875 (Simulation time: 05 hr 58 min 31 sec)
Simulation complete CPU 0 instructions: 600000001 cycles: 319960362 cumulative IPC: 1.875 (Simulation time: 05 hr 58 min 31 sec)

ChampSim completed all CPUs

=== Simulation ===
CPU 0 runs traces/400.perlbench-50B.champsimtrace.xz
Region of Interest Statistics

CPU 0 cumulative IPC: 1.875 instructions: 600000001 cycles: 319960362
CPU 0 Branch Prediction Accuracy: 96.2% MPKI: 7.839 Average ROB Occupancy at Mispredict: 43.37
Branch type MPKI
BRANCH_DIRECT_JUMP: 0.0176
BRANCH_INDIRECT: 0.38
BRANCH_CONDITIONAL: 6.99
BRANCH_DIRECT_CALL: 0.0067
BRANCH_INDIRECT_CALL: 0.431
BRANCH_RETURN: 0.0161

LLC TOTAL        ACCESS:     565731 HIT:     251809 MISS:     313922
LLC LOAD         ACCESS:     376427 HIT:     123964 MISS:     252463
LLC RFO          ACCESS:      32909 HIT:      12801 MISS:      20108
LLC PREFETCH     ACCESS:      54339 HIT:      26006 MISS:      28333
LLC WRITE        ACCESS:      83885 HIT:      82891 MISS:        994
LLC TRANSLATION  ACCESS:      18171 HIT:       6147 MISS:      12024
LLC PREFETCH REQUESTED:      54339 ISSUED:      54339 USEFUL:      17738 USELESS:       6534
LLC AVERAGE MISS LATENCY: 551.2 cycles
cpu0_DTLB TOTAL        ACCESS:  146479685 HIT:  145177381 MISS:    1302304
cpu0_DTLB LOAD         ACCESS:  146479685 HIT:  145177381 MISS:    1302304
cpu0_DTLB RFO          ACCESS:          0 HIT:          0 MISS:          0
cpu0_DTLB PREFETCH     ACCESS:          0 HIT:          0 MISS:          0
cpu0_DTLB WRITE        ACCESS:          0 HIT:          0 MISS:          0
cpu0_DTLB TRANSLATION  ACCESS:          0 HIT:          0 MISS:          0
cpu0_DTLB PREFETCH REQUESTED:          0 ISSUED:          0 USEFUL:          0 USELESS:          0
cpu0_DTLB AVERAGE MISS LATENCY: 11.82 cycles
cpu0_ITLB TOTAL        ACCESS:    8990957 HIT:    8806219 MISS:     184738
cpu0_ITLB LOAD         ACCESS:    8990957 HIT:    8806219 MISS:     184738
cpu0_ITLB RFO          ACCESS:          0 HIT:          0 MISS:          0
cpu0_ITLB PREFETCH     ACCESS:          0 HIT:          0 MISS:          0
cpu0_ITLB WRITE        ACCESS:          0 HIT:          0 MISS:          0
cpu0_ITLB TRANSLATION  ACCESS:          0 HIT:          0 MISS:          0
cpu0_ITLB PREFETCH REQUESTED:          0 ISSUED:          0 USEFUL:          0 USELESS:          0
cpu0_ITLB AVERAGE MISS LATENCY: 3.668 cycles
cpu0_L1D TOTAL        ACCESS:  193298075 HIT:  190456899 MISS:    2841176
cpu0_L1D LOAD         ACCESS:  107451030 HIT:  105113526 MISS:    2337504
cpu0_L1D RFO          ACCESS:          0 HIT:          0 MISS:          0
cpu0_L1D PREFETCH     ACCESS:          0 HIT:          0 MISS:          0
cpu0_L1D WRITE        ACCESS:   85818517 HIT:   85341357 MISS:     477160
cpu0_L1D TRANSLATION  ACCESS:      28528 HIT:       2016 MISS:      26512
cpu0_L1D PREFETCH REQUESTED:          0 ISSUED:          0 USEFUL:          0 USELESS:          0
cpu0_L1D AVERAGE MISS LATENCY: 59.03 cycles
cpu0_L1I TOTAL        ACCESS:   10424878 HIT:    8661328 MISS:    1763550
cpu0_L1I LOAD         ACCESS:   10424878 HIT:    8661328 MISS:    1763550
cpu0_L1I RFO          ACCESS:          0 HIT:          0 MISS:          0
cpu0_L1I PREFETCH     ACCESS:          0 HIT:          0 MISS:          0
cpu0_L1I WRITE        ACCESS:          0 HIT:          0 MISS:          0
cpu0_L1I TRANSLATION  ACCESS:          0 HIT:          0 MISS:          0
cpu0_L1I PREFETCH REQUESTED:          0 ISSUED:          0 USEFUL:          0 USELESS:          0
cpu0_L1I AVERAGE MISS LATENCY: 10.48 cycles
cpu0_L2C TOTAL        ACCESS:    3232400 HIT:    2803961 MISS:     428439
cpu0_L2C LOAD         ACCESS:    2710119 HIT:    2333692 MISS:     376427
cpu0_L2C RFO          ACCESS:     133265 HIT:     100356 MISS:      32909
cpu0_L2C PREFETCH     ACCESS:          0 HIT:          0 MISS:          0
cpu0_L2C WRITE        ACCESS:     362572 HIT:     361640 MISS:        932
cpu0_L2C TRANSLATION  ACCESS:      26444 HIT:       8273 MISS:      18171
cpu0_L2C PREFETCH REQUESTED:          0 ISSUED:          0 USEFUL:          0 USELESS:          0
cpu0_L2C AVERAGE MISS LATENCY: 384.2 cycles
cpu0_STLB TOTAL        ACCESS:    1008309 HIT:     981614 MISS:      26695
cpu0_STLB LOAD         ACCESS:    1008309 HIT:     981614 MISS:      26695
cpu0_STLB RFO          ACCESS:          0 HIT:          0 MISS:          0
cpu0_STLB PREFETCH     ACCESS:          0 HIT:          0 MISS:          0
cpu0_STLB WRITE        ACCESS:          0 HIT:          0 MISS:          0
cpu0_STLB TRANSLATION  ACCESS:          0 HIT:          0 MISS:          0
cpu0_STLB PREFETCH REQUESTED:          0 ISSUED:          0 USEFUL:          0 USELESS:          0
cpu0_STLB AVERAGE MISS LATENCY: 359 cycles

DRAM Statistics

Channel 0 RQ ROW_BUFFER_HIT:      60912
  ROW_BUFFER_MISS:     246999
 AVG DBUS CONGESTED CYCLE: 3.813
WQ ROW_BUFFER_HIT: Channel 0 
  ROW_BUFFER_MISS:       8518
  FULL:      36047
