WARNING: physical memory size is smaller than virtual memory size.

*** ChampSim Multicore Out-of-Order Simulator ***
Warmup Instructions: 50000000
Simulation Instructions: 600000000
Number of CPUs: 1
Page size: 4096

Off-chip DRAM Size: 4 GiB Channels: 1 Width: 64-bit Data Race: 3200 MT/s
Heartbeat CPU 0 instructions: 10000001 cycles: 2500318 heartbeat IPC: 3.999 cumulative IPC: 3.999 (Simulation time: 00 hr 03 min 54 sec)
Heartbeat CPU 0 instructions: 20000002 cycles: 5037090 heartbeat IPC: 3.942 cumulative IPC: 3.971 (Simulation time: 00 hr 08 min 04 sec)
Heartbeat CPU 0 instructions: 30000002 cycles: 7537090 heartbeat IPC: 4 cumulative IPC: 3.98 (Simulation time: 00 hr 11 min 42 sec)
Heartbeat CPU 0 instructions: 40000002 cycles: 10037090 heartbeat IPC: 4 cumulative IPC: 3.985 (Simulation time: 00 hr 15 min 21 sec)
Heartbeat CPU 0 instructions: 50000002 cycles: 12537090 heartbeat IPC: 4 cumulative IPC: 3.988 (Simulation time: 00 hr 18 min 58 sec)
Warmup finished CPU 0 instructions: 50000002 cycles: 12537091 cumulative IPC: 3.988 (Simulation time: 00 hr 18 min 58 sec)
Warmup complete CPU 0 instructions: 50000002 cycles: 12537091 cumulative IPC: 3.988 (Simulation time: 00 hr 18 min 58 sec)
Heartbeat CPU 0 instructions: 60000001 cycles: 15687383 heartbeat IPC: 3.174 cumulative IPC: 3.174 (Simulation time: 00 hr 23 min 22 sec)
Heartbeat CPU 0 instructions: 70000004 cycles: 18870655 heartbeat IPC: 3.141 cumulative IPC: 3.158 (Simulation time: 00 hr 27 min 54 sec)
Heartbeat CPU 0 instructions: 80000001 cycles: 22046398 heartbeat IPC: 3.149 cumulative IPC: 3.155 (Simulation time: 00 hr 32 min 24 sec)
Heartbeat CPU 0 instructions: 90000001 cycles: 25089574 heartbeat IPC: 3.286 cumulative IPC: 3.187 (Simulation time: 00 hr 36 min 47 sec)
Heartbeat CPU 0 instructions: 100000000 cycles: 28121287 heartbeat IPC: 3.298 cumulative IPC: 3.208 (Simulation time: 00 hr 41 min 11 sec)
Heartbeat CPU 0 instructions: 110000000 cycles: 31174740 heartbeat IPC: 3.275 cumulative IPC: 3.219 (Simulation time: 00 hr 45 min 33 sec)
Heartbeat CPU 0 instructions: 120000001 cycles: 34249010 heartbeat IPC: 3.253 cumulative IPC: 3.224 (Simulation time: 00 hr 50 min 06 sec)
Heartbeat CPU 0 instructions: 130000001 cycles: 37178448 heartbeat IPC: 3.414 cumulative IPC: 3.247 (Simulation time: 00 hr 54 min 34 sec)
Heartbeat CPU 0 instructions: 140000001 cycles: 40323574 heartbeat IPC: 3.18 cumulative IPC: 3.239 (Simulation time: 00 hr 59 min 04 sec)
Heartbeat CPU 0 instructions: 150000001 cycles: 43460193 heartbeat IPC: 3.188 cumulative IPC: 3.234 (Simulation time: 01 hr 03 min 34 sec)
Heartbeat CPU 0 instructions: 160000004 cycles: 46612245 heartbeat IPC: 3.173 cumulative IPC: 3.228 (Simulation time: 01 hr 08 min 03 sec)
Heartbeat CPU 0 instructions: 170000000 cycles: 55072873 heartbeat IPC: 1.182 cumulative IPC: 2.821 (Simulation time: 01 hr 16 min 12 sec)
Heartbeat CPU 0 instructions: 180000004 cycles: 63923835 heartbeat IPC: 1.13 cumulative IPC: 2.53 (Simulation time: 01 hr 24 min 44 sec)
Heartbeat CPU 0 instructions: 190000001 cycles: 72311723 heartbeat IPC: 1.192 cumulative IPC: 2.342 (Simulation time: 01 hr 32 min 59 sec)
Heartbeat CPU 0 instructions: 200000004 cycles: 75367928 heartbeat IPC: 3.272 cumulative IPC: 2.387 (Simulation time: 01 hr 37 min 25 sec)
Heartbeat CPU 0 instructions: 210000001 cycles: 78433199 heartbeat IPC: 3.262 cumulative IPC: 2.428 (Simulation time: 01 hr 41 min 54 sec)
Heartbeat CPU 0 instructions: 220000000 cycles: 81412926 heartbeat IPC: 3.356 cumulative IPC: 2.468 (Simulation time: 01 hr 46 min 15 sec)
Heartbeat CPU 0 instructions: 230000004 cycles: 84614159 heartbeat IPC: 3.124 cumulative IPC: 2.497 (Simulation time: 01 hr 50 min 49 sec)
Heartbeat CPU 0 instructions: 240000002 cycles: 87759380 heartbeat IPC: 3.179 cumulative IPC: 2.526 (Simulation time: 01 hr 55 min 22 sec)
Heartbeat CPU 0 instructions: 250000000 cycles: 90893996 heartbeat IPC: 3.19 cumulative IPC: 2.552 (Simulation time: 01 hr 59 min 49 sec)
Heartbeat CPU 0 instructions: 260000002 cycles: 93983426 heartbeat IPC: 3.237 cumulative IPC: 2.578 (Simulation time: 02 hr 04 min 18 sec)
Heartbeat CPU 0 instructions: 270000002 cycles: 97000421 heartbeat IPC: 3.315 cumulative IPC: 2.605 (Simulation time: 02 hr 08 min 41 sec)
Heartbeat CPU 0 instructions: 280000002 cycles: 100005872 heartbeat IPC: 3.327 cumulative IPC: 2.63 (Simulation time: 02 hr 13 min 05 sec)
Heartbeat CPU 0 instructions: 290000002 cycles: 103061101 heartbeat IPC: 3.273 cumulative IPC: 2.651 (Simulation time: 02 hr 17 min 35 sec)
Heartbeat CPU 0 instructions: 300000003 cycles: 106043903 heartbeat IPC: 3.353 cumulative IPC: 2.674 (Simulation time: 02 hr 22 min 03 sec)
Heartbeat CPU 0 instructions: 310000001 cycles: 109173154 heartbeat IPC: 3.196 cumulative IPC: 2.691 (Simulation time: 02 hr 26 min 30 sec)
Heartbeat CPU 0 instructions: 320000003 cycles: 112308717 heartbeat IPC: 3.189 cumulative IPC: 2.706 (Simulation time: 02 hr 31 min 00 sec)
Heartbeat CPU 0 instructions: 330000003 cycles: 115449056 heartbeat IPC: 3.184 cumulative IPC: 2.721 (Simulation time: 02 hr 35 min 30 sec)
Heartbeat CPU 0 instructions: 340000000 cycles: 124020953 heartbeat IPC: 1.167 cumulative IPC: 2.601 (Simulation time: 02 hr 43 min 43 sec)
Heartbeat CPU 0 instructions: 350000000 cycles: 133129896 heartbeat IPC: 1.098 cumulative IPC: 2.488 (Simulation time: 02 hr 52 min 31 sec)
Heartbeat CPU 0 instructions: 360000004 cycles: 141599586 heartbeat IPC: 1.181 cumulative IPC: 2.402 (Simulation time: 03 hr 00 min 46 sec)
Heartbeat CPU 0 instructions: 370000000 cycles: 144610212 heartbeat IPC: 3.322 cumulative IPC: 2.423 (Simulation time: 03 hr 05 min 09 sec)
Heartbeat CPU 0 instructions: 380000001 cycles: 147599779 heartbeat IPC: 3.345 cumulative IPC: 2.443 (Simulation time: 03 hr 09 min 33 sec)
Heartbeat CPU 0 instructions: 390000002 cycles: 150660047 heartbeat IPC: 3.268 cumulative IPC: 2.462 (Simulation time: 03 hr 13 min 58 sec)
Heartbeat CPU 0 instructions: 400000004 cycles: 153626578 heartbeat IPC: 3.371 cumulative IPC: 2.481 (Simulation time: 03 hr 18 min 20 sec)
Heartbeat CPU 0 instructions: 410000001 cycles: 156691124 heartbeat IPC: 3.263 cumulative IPC: 2.497 (Simulation time: 03 hr 22 min 44 sec)
Heartbeat CPU 0 instructions: 420000002 cycles: 160006583 heartbeat IPC: 3.016 cumulative IPC: 2.509 (Simulation time: 03 hr 27 min 16 sec)
Heartbeat CPU 0 instructions: 430000001 cycles: 163068099 heartbeat IPC: 3.266 cumulative IPC: 2.524 (Simulation time: 03 hr 31 min 46 sec)
Heartbeat CPU 0 instructions: 440000004 cycles: 166337491 heartbeat IPC: 3.059 cumulative IPC: 2.536 (Simulation time: 03 hr 36 min 22 sec)
Heartbeat CPU 0 instructions: 450000002 cycles: 169349463 heartbeat IPC: 3.32 cumulative IPC: 2.551 (Simulation time: 03 hr 40 min 46 sec)
Heartbeat CPU 0 instructions: 460000000 cycles: 172390529 heartbeat IPC: 3.288 cumulative IPC: 2.565 (Simulation time: 03 hr 45 min 08 sec)
Heartbeat CPU 0 instructions: 470000001 cycles: 175314538 heartbeat IPC: 3.42 cumulative IPC: 2.58 (Simulation time: 03 hr 49 min 33 sec)
Heartbeat CPU 0 instructions: 480000003 cycles: 178482266 heartbeat IPC: 3.157 cumulative IPC: 2.591 (Simulation time: 03 hr 53 min 58 sec)
Heartbeat CPU 0 instructions: 490000004 cycles: 181391643 heartbeat IPC: 3.437 cumulative IPC: 2.606 (Simulation time: 03 hr 58 min 21 sec)
Heartbeat CPU 0 instructions: 500000004 cycles: 184450498 heartbeat IPC: 3.269 cumulative IPC: 2.618 (Simulation time: 04 hr 02 min 49 sec)
Heartbeat CPU 0 instructions: 510000003 cycles: 187564383 heartbeat IPC: 3.211 cumulative IPC: 2.628 (Simulation time: 04 hr 07 min 19 sec)
Heartbeat CPU 0 instructions: 520000001 cycles: 190554160 heartbeat IPC: 3.345 cumulative IPC: 2.64 (Simulation time: 04 hr 11 min 44 sec)
Heartbeat CPU 0 instructions: 530000001 cycles: 193635877 heartbeat IPC: 3.245 cumulative IPC: 2.65 (Simulation time: 04 hr 16 min 11 sec)
Heartbeat CPU 0 instructions: 540000001 cycles: 196690770 heartbeat IPC: 3.273 cumulative IPC: 2.661 (Simulation time: 04 hr 20 min 41 sec)
Heartbeat CPU 0 instructions: 550000001 cycles: 199781803 heartbeat IPC: 3.235 cumulative IPC: 2.67 (Simulation time: 04 hr 25 min 08 sec)
Heartbeat CPU 0 instructions: 560000004 cycles: 203018995 heartbeat IPC: 3.089 cumulative IPC: 2.677 (Simulation time: 04 hr 29 min 41 sec)
Heartbeat CPU 0 instructions: 570000004 cycles: 208667278 heartbeat IPC: 1.77 cumulative IPC: 2.651 (Simulation time: 04 hr 35 min 56 sec)
Heartbeat CPU 0 instructions: 580000003 cycles: 218289887 heartbeat IPC: 1.039 cumulative IPC: 2.576 (Simulation time: 04 hr 44 min 59 sec)
Heartbeat CPU 0 instructions: 590000002 cycles: 229312686 heartbeat IPC: 0.9072 cumulative IPC: 2.491 (Simulation time: 04 hr 55 min 10 sec)
Heartbeat CPU 0 instructions: 600000000 cycles: 232440267 heartbeat IPC: 3.197 cumulative IPC: 2.501 (Simulation time: 04 hr 59 min 36 sec)
Heartbeat CPU 0 instructions: 610000002 cycles: 235477390 heartbeat IPC: 3.293 cumulative IPC: 2.512 (Simulation time: 05 hr 03 min 58 sec)
Heartbeat CPU 0 instructions: 620000001 cycles: 238323380 heartbeat IPC: 3.514 cumulative IPC: 2.525 (Simulation time: 05 hr 08 min 17 sec)
Heartbeat CPU 0 instructions: 630000002 cycles: 241436949 heartbeat IPC: 3.212 cumulative IPC: 2.534 (Simulation time: 05 hr 12 min 44 sec)
Heartbeat CPU 0 instructions: 640000004 cycles: 244446017 heartbeat IPC: 3.323 cumulative IPC: 2.544 (Simulation time: 05 hr 17 min 09 sec)
Heartbeat CPU 0 instructions: 650000000 cycles: 247275046 heartbeat IPC: 3.535 cumulative IPC: 2.556 (Simulation time: 05 hr 21 min 27 sec)
Simulation finished CPU 0 instructions: 600000001 cycles: 234737957 cumulative IPC: 2.556 (Simulation time: 05 hr 21 min 27 sec)
Simulation complete CPU 0 instructions: 600000001 cycles: 234737957 cumulative IPC: 2.556 (Simulation time: 05 hr 21 min 27 sec)

ChampSim completed all CPUs

=== Simulation ===
CPU 0 runs traces/400.perlbench-41B.champsimtrace.xz
Region of Interest Statistics

CPU 0 cumulative IPC: 2.556 instructions: 600000001 cycles: 234737957
CPU 0 Branch Prediction Accuracy: 98.9% MPKI: 2.275 Average ROB Occupancy at Mispredict: 91.5
Branch type MPKI
BRANCH_DIRECT_JUMP: 0.0123
BRANCH_INDIRECT: 0.323
BRANCH_CONDITIONAL: 1.73
BRANCH_DIRECT_CALL: 0.0043
BRANCH_INDIRECT_CALL: 0.2
BRANCH_RETURN: 0.00828

LLC TOTAL        ACCESS:     463506 HIT:     171066 MISS:     292440
LLC LOAD         ACCESS:     309601 HIT:      74418 MISS:     235183
LLC RFO          ACCESS:      25046 HIT:       8189 MISS:      16857
LLC PREFETCH     ACCESS:      49192 HIT:      20516 MISS:      28676
LLC WRITE        ACCESS:      63895 HIT:      62631 MISS:       1264
LLC TRANSLATION  ACCESS:      15772 HIT:       5312 MISS:      10460
LLC PREFETCH REQUESTED:      49192 ISSUED:      49192 USEFUL:      18161 USELESS:       6996
LLC AVERAGE MISS LATENCY: 645.8 cycles
cpu0_DTLB TOTAL        ACCESS:  131063004 HIT:  130361618 MISS:     701386
cpu0_DTLB LOAD         ACCESS:  131063004 HIT:  130361618 MISS:     701386
cpu0_DTLB RFO          ACCESS:          0 HIT:          0 MISS:          0
cpu0_DTLB PREFETCH     ACCESS:          0 HIT:          0 MISS:          0
cpu0_DTLB WRITE        ACCESS:          0 HIT:          0 MISS:          0
cpu0_DTLB TRANSLATION  ACCESS:          0 HIT:          0 MISS:          0
cpu0_DTLB PREFETCH REQUESTED:          0 ISSUED:          0 USEFUL:          0 USELESS:          0
cpu0_DTLB AVERAGE MISS LATENCY: 16.04 cycles
cpu0_ITLB TOTAL        ACCESS:    4867837 HIT:    4806564 MISS:      61273
cpu0_ITLB LOAD         ACCESS:    4867837 HIT:    4806564 MISS:      61273
cpu0_ITLB RFO          ACCESS:          0 HIT:          0 MISS:          0
cpu0_ITLB PREFETCH     ACCESS:          0 HIT:          0 MISS:          0
cpu0_ITLB WRITE        ACCESS:          0 HIT:          0 MISS:          0
cpu0_ITLB TRANSLATION  ACCESS:          0 HIT:          0 MISS:          0
cpu0_ITLB PREFETCH REQUESTED:          0 ISSUED:          0 USEFUL:          0 USELESS:          0
cpu0_ITLB AVERAGE MISS LATENCY: 7.116 cycles
cpu0_L1D TOTAL        ACCESS:  176709721 HIT:  175322553 MISS:    1387168
cpu0_L1D LOAD         ACCESS:   93633166 HIT:   92565457 MISS:    1067709
cpu0_L1D RFO          ACCESS:          0 HIT:          0 MISS:          0
cpu0_L1D PREFETCH     ACCESS:          0 HIT:          0 MISS:          0
cpu0_L1D WRITE        ACCESS:   83052086 HIT:   82755495 MISS:     296591
cpu0_L1D TRANSLATION  ACCESS:      24469 HIT:       1601 MISS:      22868
cpu0_L1D PREFETCH REQUESTED:          0 ISSUED:          0 USEFUL:          0 USELESS:          0
cpu0_L1D AVERAGE MISS LATENCY: 119.2 cycles
cpu0_L1I TOTAL        ACCESS:    5644506 HIT:    4843711 MISS:     800795
cpu0_L1I LOAD         ACCESS:    5644506 HIT:    4843711 MISS:     800795
cpu0_L1I RFO          ACCESS:          0 HIT:          0 MISS:          0
cpu0_L1I PREFETCH     ACCESS:          0 HIT:          0 MISS:          0
cpu0_L1I WRITE        ACCESS:          0 HIT:          0 MISS:          0
cpu0_L1I TRANSLATION  ACCESS:          0 HIT:          0 MISS:          0
cpu0_L1I PREFETCH REQUESTED:          0 ISSUED:          0 USEFUL:          0 USELESS:          0
cpu0_L1I AVERAGE MISS LATENCY: 14.22 cycles
cpu0_L2C TOTAL        ACCESS:    1381584 HIT:    1030283 MISS:     351301
cpu0_L2C LOAD         ACCESS:    1124033 HIT:     814432 MISS:     309601
cpu0_L2C RFO          ACCESS:      64527 HIT:      39481 MISS:      25046
cpu0_L2C PREFETCH     ACCESS:          0 HIT:          0 MISS:          0
cpu0_L2C WRITE        ACCESS:     170237 HIT:     169355 MISS:        882
cpu0_L2C TRANSLATION  ACCESS:      22787 HIT:       7015 MISS:      15772
cpu0_L2C PREFETCH REQUESTED:          0 ISSUED:          0 USEFUL:          0 USELESS:          0
cpu0_L2C AVERAGE MISS LATENCY: 502.7 cycles
cpu0_STLB TOTAL        ACCESS:     508636 HIT:     485846 MISS:      22790
cpu0_STLB LOAD         ACCESS:     508636 HIT:     485846 MISS:      22790
cpu0_STLB RFO          ACCESS:          0 HIT:          0 MISS:          0
cpu0_STLB PREFETCH     ACCESS:          0 HIT:          0 MISS:          0
cpu0_STLB WRITE        ACCESS:          0 HIT:          0 MISS:          0
cpu0_STLB TRANSLATION  ACCESS:          0 HIT:          0 MISS:          0
cpu0_STLB PREFETCH REQUESTED:          0 ISSUED:          0 USEFUL:          0 USELESS:          0
cpu0_STLB AVERAGE MISS LATENCY: 389.1 cycles

DRAM Statistics

Channel 0 RQ ROW_BUFFER_HIT:      53975
  ROW_BUFFER_MISS:     231239
 AVG DBUS CONGESTED CYCLE: 3.857
WQ ROW_BUFFER_HIT: Channel 0 
  ROW_BUFFER_MISS:       4934
  FULL:      40591
