WARNING: physical memory size is smaller than virtual memory size.

*** ChampSim Multicore Out-of-Order Simulator ***
Warmup Instructions: 50000000
Simulation Instructions: 600000000
Number of CPUs: 1
Page size: 4096

Off-chip DRAM Size: 4 GiB Channels: 1 Width: 64-bit Data Race: 3200 MT/s
Heartbeat CPU 0 instructions: 10000000 cycles: 2500061 heartbeat IPC: 4 cumulative IPC: 4 (Simulation time: 00 hr 03 min 19 sec)
Heartbeat CPU 0 instructions: 20000000 cycles: 5000061 heartbeat IPC: 4 cumulative IPC: 4 (Simulation time: 00 hr 06 min 35 sec)
Heartbeat CPU 0 instructions: 30000000 cycles: 7500061 heartbeat IPC: 4 cumulative IPC: 4 (Simulation time: 00 hr 09 min 39 sec)
Heartbeat CPU 0 instructions: 40000000 cycles: 10000061 heartbeat IPC: 4 cumulative IPC: 4 (Simulation time: 00 hr 12 min 44 sec)
Heartbeat CPU 0 instructions: 50000000 cycles: 12500061 heartbeat IPC: 4 cumulative IPC: 4 (Simulation time: 00 hr 15 min 37 sec)
Warmup finished CPU 0 instructions: 50000000 cycles: 12500062 cumulative IPC: 4 (Simulation time: 00 hr 15 min 37 sec)
Warmup complete CPU 0 instructions: 50000000 cycles: 12500062 cumulative IPC: 4 (Simulation time: 00 hr 15 min 37 sec)
Heartbeat CPU 0 instructions: 60000002 cycles: 16910711 heartbeat IPC: 2.267 cumulative IPC: 2.267 (Simulation time: 00 hr 19 min 34 sec)
Heartbeat CPU 0 instructions: 70000003 cycles: 21896385 heartbeat IPC: 2.006 cumulative IPC: 2.128 (Simulation time: 00 hr 23 min 34 sec)
Heartbeat CPU 0 instructions: 80000001 cycles: 27245595 heartbeat IPC: 1.869 cumulative IPC: 2.035 (Simulation time: 00 hr 27 min 40 sec)
Heartbeat CPU 0 instructions: 90000000 cycles: 31544084 heartbeat IPC: 2.326 cumulative IPC: 2.1 (Simulation time: 00 hr 31 min 08 sec)
Heartbeat CPU 0 instructions: 100000003 cycles: 36403206 heartbeat IPC: 2.058 cumulative IPC: 2.092 (Simulation time: 00 hr 34 min 42 sec)
Heartbeat CPU 0 instructions: 110000002 cycles: 41280710 heartbeat IPC: 2.05 cumulative IPC: 2.085 (Simulation time: 00 hr 38 min 04 sec)
Heartbeat CPU 0 instructions: 120000001 cycles: 46277013 heartbeat IPC: 2.001 cumulative IPC: 2.072 (Simulation time: 00 hr 41 min 22 sec)
Heartbeat CPU 0 instructions: 130000003 cycles: 50847689 heartbeat IPC: 2.188 cumulative IPC: 2.086 (Simulation time: 00 hr 44 min 28 sec)
Heartbeat CPU 0 instructions: 140000002 cycles: 55740962 heartbeat IPC: 2.044 cumulative IPC: 2.081 (Simulation time: 00 hr 47 min 38 sec)
Heartbeat CPU 0 instructions: 150000001 cycles: 60412379 heartbeat IPC: 2.141 cumulative IPC: 2.087 (Simulation time: 00 hr 50 min 44 sec)
Heartbeat CPU 0 instructions: 160000000 cycles: 65052851 heartbeat IPC: 2.155 cumulative IPC: 2.093 (Simulation time: 00 hr 53 min 44 sec)
Heartbeat CPU 0 instructions: 170000000 cycles: 70389352 heartbeat IPC: 1.874 cumulative IPC: 2.073 (Simulation time: 00 hr 57 min 03 sec)
Heartbeat CPU 0 instructions: 180000001 cycles: 76110957 heartbeat IPC: 1.748 cumulative IPC: 2.044 (Simulation time: 01 hr 00 min 36 sec)
Heartbeat CPU 0 instructions: 190000002 cycles: 80587462 heartbeat IPC: 2.234 cumulative IPC: 2.056 (Simulation time: 01 hr 03 min 43 sec)
Heartbeat CPU 0 instructions: 200000002 cycles: 85496926 heartbeat IPC: 2.037 cumulative IPC: 2.055 (Simulation time: 01 hr 07 min 02 sec)
Heartbeat CPU 0 instructions: 210000000 cycles: 90502599 heartbeat IPC: 1.998 cumulative IPC: 2.051 (Simulation time: 01 hr 10 min 26 sec)
Heartbeat CPU 0 instructions: 220000001 cycles: 95427695 heartbeat IPC: 2.03 cumulative IPC: 2.05 (Simulation time: 01 hr 13 min 44 sec)
Heartbeat CPU 0 instructions: 230000002 cycles: 100676342 heartbeat IPC: 1.905 cumulative IPC: 2.041 (Simulation time: 01 hr 17 min 13 sec)
Heartbeat CPU 0 instructions: 240000001 cycles: 105642741 heartbeat IPC: 2.014 cumulative IPC: 2.04 (Simulation time: 01 hr 20 min 31 sec)
Heartbeat CPU 0 instructions: 250000003 cycles: 110830148 heartbeat IPC: 1.928 cumulative IPC: 2.034 (Simulation time: 01 hr 23 min 47 sec)
Heartbeat CPU 0 instructions: 260000001 cycles: 115692334 heartbeat IPC: 2.057 cumulative IPC: 2.035 (Simulation time: 01 hr 27 min 08 sec)
Heartbeat CPU 0 instructions: 270000000 cycles: 123417347 heartbeat IPC: 1.294 cumulative IPC: 1.983 (Simulation time: 01 hr 31 min 36 sec)
Heartbeat CPU 0 instructions: 280000000 cycles: 134423257 heartbeat IPC: 0.9086 cumulative IPC: 1.886 (Simulation time: 01 hr 37 min 32 sec)
Heartbeat CPU 0 instructions: 290000001 cycles: 143829616 heartbeat IPC: 1.063 cumulative IPC: 1.827 (Simulation time: 01 hr 42 min 44 sec)
Heartbeat CPU 0 instructions: 300000003 cycles: 151207763 heartbeat IPC: 1.355 cumulative IPC: 1.802 (Simulation time: 01 hr 47 min 19 sec)
Heartbeat CPU 0 instructions: 310000004 cycles: 162338495 heartbeat IPC: 0.8984 cumulative IPC: 1.735 (Simulation time: 01 hr 53 min 29 sec)
Heartbeat CPU 0 instructions: 320000004 cycles: 168024892 heartbeat IPC: 1.759 cumulative IPC: 1.736 (Simulation time: 01 hr 57 min 14 sec)
Heartbeat CPU 0 instructions: 330000000 cycles: 173316316 heartbeat IPC: 1.89 cumulative IPC: 1.741 (Simulation time: 02 hr 00 min 43 sec)
Heartbeat CPU 0 instructions: 340000001 cycles: 178460499 heartbeat IPC: 1.944 cumulative IPC: 1.747 (Simulation time: 02 hr 04 min 09 sec)
Heartbeat CPU 0 instructions: 350000000 cycles: 183815003 heartbeat IPC: 1.868 cumulative IPC: 1.751 (Simulation time: 02 hr 07 min 39 sec)
Heartbeat CPU 0 instructions: 360000003 cycles: 188931405 heartbeat IPC: 1.954 cumulative IPC: 1.757 (Simulation time: 02 hr 11 min 08 sec)
Heartbeat CPU 0 instructions: 370000001 cycles: 193989148 heartbeat IPC: 1.977 cumulative IPC: 1.763 (Simulation time: 02 hr 14 min 28 sec)
Heartbeat CPU 0 instructions: 380000004 cycles: 199317360 heartbeat IPC: 1.877 cumulative IPC: 1.766 (Simulation time: 02 hr 17 min 52 sec)
Heartbeat CPU 0 instructions: 390000002 cycles: 204694095 heartbeat IPC: 1.86 cumulative IPC: 1.769 (Simulation time: 02 hr 21 min 24 sec)
Heartbeat CPU 0 instructions: 400000000 cycles: 210145956 heartbeat IPC: 1.834 cumulative IPC: 1.771 (Simulation time: 02 hr 25 min 03 sec)
Heartbeat CPU 0 instructions: 410000000 cycles: 217700886 heartbeat IPC: 1.324 cumulative IPC: 1.754 (Simulation time: 02 hr 29 min 24 sec)
Heartbeat CPU 0 instructions: 420000001 cycles: 227726550 heartbeat IPC: 0.9974 cumulative IPC: 1.719 (Simulation time: 02 hr 34 min 56 sec)
Heartbeat CPU 0 instructions: 430000000 cycles: 235047022 heartbeat IPC: 1.366 cumulative IPC: 1.708 (Simulation time: 02 hr 39 min 25 sec)
Heartbeat CPU 0 instructions: 440000002 cycles: 242251819 heartbeat IPC: 1.388 cumulative IPC: 1.697 (Simulation time: 02 hr 43 min 51 sec)
Heartbeat CPU 0 instructions: 450000000 cycles: 249019219 heartbeat IPC: 1.478 cumulative IPC: 1.691 (Simulation time: 02 hr 48 min 10 sec)
Heartbeat CPU 0 instructions: 460000002 cycles: 259652937 heartbeat IPC: 0.9404 cumulative IPC: 1.659 (Simulation time: 02 hr 53 min 57 sec)
Heartbeat CPU 0 instructions: 470000000 cycles: 269543778 heartbeat IPC: 1.011 cumulative IPC: 1.634 (Simulation time: 02 hr 59 min 20 sec)
Heartbeat CPU 0 instructions: 480000000 cycles: 274979307 heartbeat IPC: 1.84 cumulative IPC: 1.638 (Simulation time: 03 hr 02 min 49 sec)
Heartbeat CPU 0 instructions: 490000001 cycles: 280591917 heartbeat IPC: 1.782 cumulative IPC: 1.641 (Simulation time: 03 hr 06 min 28 sec)
Heartbeat CPU 0 instructions: 500000002 cycles: 286145646 heartbeat IPC: 1.801 cumulative IPC: 1.644 (Simulation time: 03 hr 10 min 02 sec)
Heartbeat CPU 0 instructions: 510000000 cycles: 291769212 heartbeat IPC: 1.778 cumulative IPC: 1.647 (Simulation time: 03 hr 13 min 47 sec)
Heartbeat CPU 0 instructions: 520000000 cycles: 297448724 heartbeat IPC: 1.761 cumulative IPC: 1.649 (Simulation time: 03 hr 17 min 27 sec)
Heartbeat CPU 0 instructions: 530000001 cycles: 307615078 heartbeat IPC: 0.9836 cumulative IPC: 1.626 (Simulation time: 03 hr 22 min 52 sec)
Heartbeat CPU 0 instructions: 540000000 cycles: 317313679 heartbeat IPC: 1.031 cumulative IPC: 1.608 (Simulation time: 03 hr 27 min 55 sec)
Heartbeat CPU 0 instructions: 550000002 cycles: 329753457 heartbeat IPC: 0.8039 cumulative IPC: 1.576 (Simulation time: 03 hr 33 min 57 sec)
Heartbeat CPU 0 instructions: 560000004 cycles: 334587817 heartbeat IPC: 2.069 cumulative IPC: 1.583 (Simulation time: 03 hr 36 min 33 sec)
Heartbeat CPU 0 instructions: 570000001 cycles: 338999147 heartbeat IPC: 2.267 cumulative IPC: 1.593 (Simulation time: 03 hr 38 min 58 sec)
Heartbeat CPU 0 instructions: 580000003 cycles: 343230003 heartbeat IPC: 2.364 cumulative IPC: 1.603 (Simulation time: 03 hr 41 min 17 sec)
Heartbeat CPU 0 instructions: 590000001 cycles: 348136080 heartbeat IPC: 2.038 cumulative IPC: 1.609 (Simulation time: 03 hr 43 min 31 sec)
Heartbeat CPU 0 instructions: 600000003 cycles: 352776784 heartbeat IPC: 2.155 cumulative IPC: 1.616 (Simulation time: 03 hr 45 min 06 sec)
Heartbeat CPU 0 instructions: 610000001 cycles: 357636058 heartbeat IPC: 2.058 cumulative IPC: 1.623 (Simulation time: 03 hr 46 min 32 sec)
Heartbeat CPU 0 instructions: 620000000 cycles: 362701761 heartbeat IPC: 1.974 cumulative IPC: 1.628 (Simulation time: 03 hr 47 min 43 sec)
Heartbeat CPU 0 instructions: 630000002 cycles: 366949377 heartbeat IPC: 2.354 cumulative IPC: 1.636 (Simulation time: 03 hr 48 min 42 sec)
Heartbeat CPU 0 instructions: 640000004 cycles: 372267802 heartbeat IPC: 1.88 cumulative IPC: 1.64 (Simulation time: 03 hr 49 min 27 sec)
Heartbeat CPU 0 instructions: 650000001 cycles: 377028638 heartbeat IPC: 2.1 cumulative IPC: 1.646 (Simulation time: 03 hr 49 min 59 sec)
Simulation finished CPU 0 instructions: 600000001 cycles: 364528577 cumulative IPC: 1.646 (Simulation time: 03 hr 49 min 59 sec)
Simulation complete CPU 0 instructions: 600000001 cycles: 364528577 cumulative IPC: 1.646 (Simulation time: 03 hr 49 min 59 sec)

ChampSim completed all CPUs

=== Simulation ===
CPU 0 runs traces/400.perlbench-50B.champsimtrace.xz
Region of Interest Statistics

CPU 0 cumulative IPC: 1.646 instructions: 600000001 cycles: 364528577
CPU 0 Branch Prediction Accuracy: 93.83% MPKI: 12.71 Average ROB Occupancy at Mispredict: 29.28
Branch type MPKI
BRANCH_DIRECT_JUMP: 0.0176
BRANCH_INDIRECT: 0.38
BRANCH_CONDITIONAL: 11.9
BRANCH_DIRECT_CALL: 0.0067
BRANCH_INDIRECT_CALL: 0.431
BRANCH_RETURN: 0.0161

LLC TOTAL        ACCESS:     512634 HIT:     230723 MISS:     281911
LLC LOAD         ACCESS:     377176 HIT:     126106 MISS:     251070
LLC RFO          ACCESS:      32790 HIT:      21994 MISS:      10796
LLC PREFETCH     ACCESS:          0 HIT:          0 MISS:          0
LLC WRITE        ACCESS:      84563 HIT:      78710 MISS:       5853
LLC TRANSLATION  ACCESS:      18105 HIT:       3913 MISS:      14192
LLC PREFETCH REQUESTED:          0 ISSUED:          0 USEFUL:          0 USELESS:          0
LLC AVERAGE MISS LATENCY: 467.3 cycles
cpu0_DTLB TOTAL        ACCESS:  156755359 HIT:  155454432 MISS:    1300927
cpu0_DTLB LOAD         ACCESS:  156755359 HIT:  155454432 MISS:    1300927
cpu0_DTLB RFO          ACCESS:          0 HIT:          0 MISS:          0
cpu0_DTLB PREFETCH     ACCESS:          0 HIT:          0 MISS:          0
cpu0_DTLB WRITE        ACCESS:          0 HIT:          0 MISS:          0
cpu0_DTLB TRANSLATION  ACCESS:          0 HIT:          0 MISS:          0
cpu0_DTLB PREFETCH REQUESTED:          0 ISSUED:          0 USEFUL:          0 USELESS:          0
cpu0_DTLB AVERAGE MISS LATENCY: 12.44 cycles
cpu0_ITLB TOTAL        ACCESS:    8932875 HIT:    8734030 MISS:     198845
cpu0_ITLB LOAD         ACCESS:    8932875 HIT:    8734030 MISS:     198845
cpu0_ITLB RFO          ACCESS:          0 HIT:          0 MISS:          0
cpu0_ITLB PREFETCH     ACCESS:          0 HIT:          0 MISS:          0
cpu0_ITLB WRITE        ACCESS:          0 HIT:          0 MISS:          0
cpu0_ITLB TRANSLATION  ACCESS:          0 HIT:          0 MISS:          0
cpu0_ITLB PREFETCH REQUESTED:          0 ISSUED:          0 USEFUL:          0 USELESS:          0
cpu0_ITLB AVERAGE MISS LATENCY: 3.306 cycles
cpu0_L1D TOTAL        ACCESS:  203627798 HIT:  200796616 MISS:    2831182
cpu0_L1D LOAD         ACCESS:  117951698 HIT:  115613691 MISS:    2338007
cpu0_L1D RFO          ACCESS:          0 HIT:          0 MISS:          0
cpu0_L1D PREFETCH     ACCESS:          0 HIT:          0 MISS:          0
cpu0_L1D WRITE        ACCESS:   85647560 HIT:   85180933 MISS:     466627
cpu0_L1D TRANSLATION  ACCESS:      28540 HIT:       1992 MISS:      26548
cpu0_L1D PREFETCH REQUESTED:          0 ISSUED:          0 USEFUL:          0 USELESS:          0
cpu0_L1D AVERAGE MISS LATENCY: 51.46 cycles
cpu0_L1I TOTAL        ACCESS:   10371660 HIT:    8572587 MISS:    1799073
cpu0_L1I LOAD         ACCESS:   10371660 HIT:    8572587 MISS:    1799073
cpu0_L1I RFO          ACCESS:          0 HIT:          0 MISS:          0
cpu0_L1I PREFETCH     ACCESS:          0 HIT:          0 MISS:          0
cpu0_L1I WRITE        ACCESS:          0 HIT:          0 MISS:          0
cpu0_L1I TRANSLATION  ACCESS:          0 HIT:          0 MISS:          0
cpu0_L1I PREFETCH REQUESTED:          0 ISSUED:          0 USEFUL:          0 USELESS:          0
cpu0_L1I AVERAGE MISS LATENCY: 9.891 cycles
cpu0_L2C TOTAL        ACCESS:    3235519 HIT:    2806482 MISS:     429037
cpu0_L2C LOAD         ACCESS:    2711800 HIT:    2334624 MISS:     377176
cpu0_L2C RFO          ACCESS:     133672 HIT:     100882 MISS:      32790
cpu0_L2C PREFETCH     ACCESS:          0 HIT:          0 MISS:          0
cpu0_L2C WRITE        ACCESS:     363583 HIT:     362617 MISS:        966
cpu0_L2C TRANSLATION  ACCESS:      26464 HIT:       8359 MISS:      18105
cpu0_L2C PREFETCH REQUESTED:          0 ISSUED:          0 USEFUL:          0 USELESS:          0
cpu0_L2C AVERAGE MISS LATENCY: 327.7 cycles
cpu0_STLB TOTAL        ACCESS:    1009213 HIT:     982522 MISS:      26691
cpu0_STLB LOAD         ACCESS:    1009213 HIT:     982522 MISS:      26691
cpu0_STLB RFO          ACCESS:          0 HIT:          0 MISS:          0
cpu0_STLB PREFETCH     ACCESS:          0 HIT:          0 MISS:          0
cpu0_STLB WRITE        ACCESS:          0 HIT:          0 MISS:          0
cpu0_STLB TRANSLATION  ACCESS:          0 HIT:          0 MISS:          0
cpu0_STLB PREFETCH REQUESTED:          0 ISSUED:          0 USEFUL:          0 USELESS:          0
cpu0_STLB AVERAGE MISS LATENCY: 386.7 cycles

DRAM Statistics

Channel 0 RQ ROW_BUFFER_HIT:      77115
  ROW_BUFFER_MISS:     198937
 AVG DBUS CONGESTED CYCLE: 3.697
WQ ROW_BUFFER_HIT: Channel 0 
  ROW_BUFFER_MISS:       2927
  FULL:       3514
