WARNING: physical memory size is smaller than virtual memory size.

*** ChampSim Multicore Out-of-Order Simulator ***
Warmup Instructions: 50000000
Simulation Instructions: 600000000
Number of CPUs: 1
Page size: 4096

CPU 0 Tage branch predictor
Off-chip DRAM Size: 4 GiB Channels: 1 Width: 64-bit Data Race: 3200 MT/s
Heartbeat CPU 0 instructions: 10000000 cycles: 2500061 heartbeat IPC: 4 cumulative IPC: 4 (Simulation time: 00 hr 04 min 23 sec)
Heartbeat CPU 0 instructions: 20000000 cycles: 5000061 heartbeat IPC: 4 cumulative IPC: 4 (Simulation time: 00 hr 08 min 32 sec)
Heartbeat CPU 0 instructions: 30000000 cycles: 7500061 heartbeat IPC: 4 cumulative IPC: 4 (Simulation time: 00 hr 12 min 36 sec)
Heartbeat CPU 0 instructions: 40000000 cycles: 10000061 heartbeat IPC: 4 cumulative IPC: 4 (Simulation time: 00 hr 16 min 40 sec)
Heartbeat CPU 0 instructions: 50000000 cycles: 12500061 heartbeat IPC: 4 cumulative IPC: 4 (Simulation time: 00 hr 20 min 49 sec)
Warmup finished CPU 0 instructions: 50000000 cycles: 12500062 cumulative IPC: 4 (Simulation time: 00 hr 20 min 49 sec)
Warmup complete CPU 0 instructions: 50000000 cycles: 12500062 cumulative IPC: 4 (Simulation time: 00 hr 20 min 49 sec)
Heartbeat CPU 0 instructions: 60000004 cycles: 15503755 heartbeat IPC: 3.329 cumulative IPC: 3.329 (Simulation time: 00 hr 25 min 46 sec)
Heartbeat CPU 0 instructions: 70000003 cycles: 18381707 heartbeat IPC: 3.475 cumulative IPC: 3.4 (Simulation time: 00 hr 30 min 41 sec)
Heartbeat CPU 0 instructions: 80000002 cycles: 21403704 heartbeat IPC: 3.309 cumulative IPC: 3.369 (Simulation time: 00 hr 35 min 37 sec)
Heartbeat CPU 0 instructions: 90000000 cycles: 24125815 heartbeat IPC: 3.674 cumulative IPC: 3.441 (Simulation time: 00 hr 40 min 22 sec)
Heartbeat CPU 0 instructions: 100000003 cycles: 26891989 heartbeat IPC: 3.615 cumulative IPC: 3.474 (Simulation time: 00 hr 45 min 20 sec)
Heartbeat CPU 0 instructions: 110000001 cycles: 29797284 heartbeat IPC: 3.442 cumulative IPC: 3.469 (Simulation time: 00 hr 50 min 14 sec)
Heartbeat CPU 0 instructions: 120000001 cycles: 32521234 heartbeat IPC: 3.671 cumulative IPC: 3.496 (Simulation time: 00 hr 55 min 00 sec)
Heartbeat CPU 0 instructions: 130000003 cycles: 35423852 heartbeat IPC: 3.445 cumulative IPC: 3.49 (Simulation time: 00 hr 59 min 51 sec)
Heartbeat CPU 0 instructions: 140000002 cycles: 38261887 heartbeat IPC: 3.524 cumulative IPC: 3.494 (Simulation time: 01 hr 04 min 53 sec)
Heartbeat CPU 0 instructions: 150000001 cycles: 41035638 heartbeat IPC: 3.605 cumulative IPC: 3.504 (Simulation time: 01 hr 09 min 43 sec)
Heartbeat CPU 0 instructions: 160000000 cycles: 43951113 heartbeat IPC: 3.43 cumulative IPC: 3.497 (Simulation time: 01 hr 14 min 37 sec)
Heartbeat CPU 0 instructions: 170000001 cycles: 46882100 heartbeat IPC: 3.412 cumulative IPC: 3.49 (Simulation time: 01 hr 19 min 34 sec)
Heartbeat CPU 0 instructions: 180000000 cycles: 49680801 heartbeat IPC: 3.573 cumulative IPC: 3.496 (Simulation time: 01 hr 24 min 28 sec)
Heartbeat CPU 0 instructions: 190000002 cycles: 52389383 heartbeat IPC: 3.692 cumulative IPC: 3.51 (Simulation time: 01 hr 29 min 21 sec)
Heartbeat CPU 0 instructions: 200000002 cycles: 55218919 heartbeat IPC: 3.534 cumulative IPC: 3.511 (Simulation time: 01 hr 34 min 13 sec)
Heartbeat CPU 0 instructions: 210000000 cycles: 58119135 heartbeat IPC: 3.448 cumulative IPC: 3.507 (Simulation time: 01 hr 39 min 04 sec)
Heartbeat CPU 0 instructions: 220000001 cycles: 60885334 heartbeat IPC: 3.615 cumulative IPC: 3.513 (Simulation time: 01 hr 43 min 58 sec)
Heartbeat CPU 0 instructions: 230000002 cycles: 63780192 heartbeat IPC: 3.454 cumulative IPC: 3.51 (Simulation time: 01 hr 48 min 49 sec)
Heartbeat CPU 0 instructions: 240000004 cycles: 66741925 heartbeat IPC: 3.376 cumulative IPC: 3.503 (Simulation time: 01 hr 53 min 44 sec)
Heartbeat CPU 0 instructions: 250000003 cycles: 69650099 heartbeat IPC: 3.439 cumulative IPC: 3.5 (Simulation time: 01 hr 58 min 40 sec)
Heartbeat CPU 0 instructions: 260000001 cycles: 72444462 heartbeat IPC: 3.579 cumulative IPC: 3.503 (Simulation time: 02 hr 03 min 34 sec)
Heartbeat CPU 0 instructions: 270000002 cycles: 78066798 heartbeat IPC: 1.779 cumulative IPC: 3.355 (Simulation time: 02 hr 10 min 20 sec)
Heartbeat CPU 0 instructions: 280000000 cycles: 87839018 heartbeat IPC: 1.023 cumulative IPC: 3.053 (Simulation time: 02 hr 20 min 07 sec)
Heartbeat CPU 0 instructions: 290000000 cycles: 96608073 heartbeat IPC: 1.14 cumulative IPC: 2.853 (Simulation time: 02 hr 29 min 14 sec)
Heartbeat CPU 0 instructions: 300000003 cycles: 102065810 heartbeat IPC: 1.832 cumulative IPC: 2.791 (Simulation time: 02 hr 36 min 16 sec)
Heartbeat CPU 0 instructions: 310000001 cycles: 110962849 heartbeat IPC: 1.124 cumulative IPC: 2.641 (Simulation time: 02 hr 45 min 36 sec)
Heartbeat CPU 0 instructions: 320000004 cycles: 114900208 heartbeat IPC: 2.54 cumulative IPC: 2.637 (Simulation time: 02 hr 51 min 40 sec)
Heartbeat CPU 0 instructions: 330000000 cycles: 118088775 heartbeat IPC: 3.136 cumulative IPC: 2.652 (Simulation time: 02 hr 56 min 53 sec)
Heartbeat CPU 0 instructions: 340000001 cycles: 121211818 heartbeat IPC: 3.202 cumulative IPC: 2.668 (Simulation time: 03 hr 02 min 04 sec)
Heartbeat CPU 0 instructions: 350000000 cycles: 124510071 heartbeat IPC: 3.032 cumulative IPC: 2.678 (Simulation time: 03 hr 07 min 23 sec)
Heartbeat CPU 0 instructions: 360000004 cycles: 127613843 heartbeat IPC: 3.222 cumulative IPC: 2.693 (Simulation time: 03 hr 12 min 32 sec)
Heartbeat CPU 0 instructions: 370000001 cycles: 130655742 heartbeat IPC: 3.287 cumulative IPC: 2.708 (Simulation time: 03 hr 17 min 34 sec)
Heartbeat CPU 0 instructions: 380000004 cycles: 133716158 heartbeat IPC: 3.268 cumulative IPC: 2.722 (Simulation time: 03 hr 22 min 37 sec)
Heartbeat CPU 0 instructions: 390000002 cycles: 136983165 heartbeat IPC: 3.061 cumulative IPC: 2.731 (Simulation time: 03 hr 28 min 02 sec)
Heartbeat CPU 0 instructions: 400000000 cycles: 140236915 heartbeat IPC: 3.073 cumulative IPC: 2.74 (Simulation time: 03 hr 33 min 23 sec)
Heartbeat CPU 0 instructions: 410000000 cycles: 146252428 heartbeat IPC: 1.662 cumulative IPC: 2.692 (Simulation time: 03 hr 40 min 32 sec)
Heartbeat CPU 0 instructions: 420000003 cycles: 155003102 heartbeat IPC: 1.143 cumulative IPC: 2.596 (Simulation time: 03 hr 49 min 42 sec)
Heartbeat CPU 0 instructions: 430000004 cycles: 160336285 heartbeat IPC: 1.875 cumulative IPC: 2.57 (Simulation time: 03 hr 56 min 43 sec)
Heartbeat CPU 0 instructions: 440000004 cycles: 166106426 heartbeat IPC: 1.733 cumulative IPC: 2.539 (Simulation time: 04 hr 03 min 53 sec)
Heartbeat CPU 0 instructions: 450000000 cycles: 171300748 heartbeat IPC: 1.925 cumulative IPC: 2.519 (Simulation time: 04 hr 10 min 39 sec)
Heartbeat CPU 0 instructions: 460000002 cycles: 181035449 heartbeat IPC: 1.027 cumulative IPC: 2.433 (Simulation time: 04 hr 20 min 28 sec)
Heartbeat CPU 0 instructions: 470000003 cycles: 188878009 heartbeat IPC: 1.275 cumulative IPC: 2.381 (Simulation time: 04 hr 29 min 04 sec)
Heartbeat CPU 0 instructions: 480000000 cycles: 192336073 heartbeat IPC: 2.892 cumulative IPC: 2.391 (Simulation time: 04 hr 34 min 29 sec)
Heartbeat CPU 0 instructions: 490000001 cycles: 195831032 heartbeat IPC: 2.861 cumulative IPC: 2.4 (Simulation time: 04 hr 39 min 49 sec)
Heartbeat CPU 0 instructions: 500000002 cycles: 199256725 heartbeat IPC: 2.919 cumulative IPC: 2.41 (Simulation time: 04 hr 45 min 27 sec)
Heartbeat CPU 0 instructions: 510000000 cycles: 202619264 heartbeat IPC: 2.974 cumulative IPC: 2.42 (Simulation time: 04 hr 50 min 52 sec)
Heartbeat CPU 0 instructions: 520000000 cycles: 205995699 heartbeat IPC: 2.962 cumulative IPC: 2.429 (Simulation time: 04 hr 56 min 14 sec)
Heartbeat CPU 0 instructions: 530000001 cycles: 214747192 heartbeat IPC: 1.143 cumulative IPC: 2.373 (Simulation time: 05 hr 05 min 20 sec)
Heartbeat CPU 0 instructions: 540000000 cycles: 223602700 heartbeat IPC: 1.129 cumulative IPC: 2.321 (Simulation time: 05 hr 14 min 53 sec)
Heartbeat CPU 0 instructions: 550000004 cycles: 234412191 heartbeat IPC: 0.9251 cumulative IPC: 2.253 (Simulation time: 05 hr 25 min 28 sec)
Heartbeat CPU 0 instructions: 560000004 cycles: 238182696 heartbeat IPC: 2.652 cumulative IPC: 2.26 (Simulation time: 05 hr 30 min 57 sec)
Heartbeat CPU 0 instructions: 570000002 cycles: 241008588 heartbeat IPC: 3.539 cumulative IPC: 2.276 (Simulation time: 05 hr 35 min 51 sec)
Heartbeat CPU 0 instructions: 580000000 cycles: 243937948 heartbeat IPC: 3.414 cumulative IPC: 2.29 (Simulation time: 05 hr 40 min 47 sec)
Heartbeat CPU 0 instructions: 590000001 cycles: 246872210 heartbeat IPC: 3.408 cumulative IPC: 2.304 (Simulation time: 05 hr 45 min 44 sec)
Heartbeat CPU 0 instructions: 600000003 cycles: 249570034 heartbeat IPC: 3.707 cumulative IPC: 2.32 (Simulation time: 05 hr 50 min 34 sec)
Heartbeat CPU 0 instructions: 610000001 cycles: 252441161 heartbeat IPC: 3.483 cumulative IPC: 2.334 (Simulation time: 05 hr 55 min 32 sec)
Heartbeat CPU 0 instructions: 620000004 cycles: 255396770 heartbeat IPC: 3.383 cumulative IPC: 2.347 (Simulation time: 06 hr 00 min 32 sec)
Heartbeat CPU 0 instructions: 630000002 cycles: 258209349 heartbeat IPC: 3.555 cumulative IPC: 2.361 (Simulation time: 06 hr 05 min 29 sec)
Heartbeat CPU 0 instructions: 640000004 cycles: 261253163 heartbeat IPC: 3.285 cumulative IPC: 2.372 (Simulation time: 06 hr 10 min 28 sec)
Heartbeat CPU 0 instructions: 650000001 cycles: 263959591 heartbeat IPC: 3.695 cumulative IPC: 2.386 (Simulation time: 06 hr 15 min 21 sec)
Simulation finished CPU 0 instructions: 600000001 cycles: 251459530 cumulative IPC: 2.386 (Simulation time: 06 hr 15 min 21 sec)
Simulation complete CPU 0 instructions: 600000001 cycles: 251459530 cumulative IPC: 2.386 (Simulation time: 06 hr 15 min 21 sec)

ChampSim completed all CPUs

=== Simulation ===
CPU 0 runs traces/400.perlbench-50B.champsimtrace.xz
Region of Interest Statistics

CPU 0 cumulative IPC: 2.386 instructions: 600000001 cycles: 251459530
CPU 0 Branch Prediction Accuracy: 99.01% MPKI: 2.04 Average ROB Occupancy at Mispredict: 94.28
Branch type MPKI
BRANCH_DIRECT_JUMP: 0.0176
BRANCH_INDIRECT: 0.38
BRANCH_CONDITIONAL: 1.19
BRANCH_DIRECT_CALL: 0.0067
BRANCH_INDIRECT_CALL: 0.431
BRANCH_RETURN: 0.0161

LLC TOTAL        ACCESS:     888322 HIT:     329078 MISS:     559244
LLC LOAD         ACCESS:     376927 HIT:     147236 MISS:     229691
LLC RFO          ACCESS:      32695 HIT:       9591 MISS:      23104
LLC PREFETCH     ACCESS:     376927 HIT:     137764 MISS:     239163
LLC WRITE        ACCESS:      83581 HIT:      33816 MISS:      49765
LLC TRANSLATION  ACCESS:      18192 HIT:        671 MISS:      17521
LLC PREFETCH REQUESTED:     376927 ISSUED:     376927 USEFUL:      55711 USELESS:     121981
LLC AVERAGE MISS LATENCY: 568.8 cycles
cpu0_DTLB TOTAL        ACCESS:  133150121 HIT:  131798842 MISS:    1351279
cpu0_DTLB LOAD         ACCESS:  133150121 HIT:  131798842 MISS:    1351279
cpu0_DTLB RFO          ACCESS:          0 HIT:          0 MISS:          0
cpu0_DTLB PREFETCH     ACCESS:          0 HIT:          0 MISS:          0
cpu0_DTLB WRITE        ACCESS:          0 HIT:          0 MISS:          0
cpu0_DTLB TRANSLATION  ACCESS:          0 HIT:          0 MISS:          0
cpu0_DTLB PREFETCH REQUESTED:          0 ISSUED:          0 USEFUL:          0 USELESS:          0
cpu0_DTLB AVERAGE MISS LATENCY: 15.52 cycles
cpu0_ITLB TOTAL        ACCESS:    8991396 HIT:    8781033 MISS:     210363
cpu0_ITLB LOAD         ACCESS:    8991396 HIT:    8781033 MISS:     210363
cpu0_ITLB RFO          ACCESS:          0 HIT:          0 MISS:          0
cpu0_ITLB PREFETCH     ACCESS:          0 HIT:          0 MISS:          0
cpu0_ITLB WRITE        ACCESS:          0 HIT:          0 MISS:          0
cpu0_ITLB TRANSLATION  ACCESS:          0 HIT:          0 MISS:          0
cpu0_ITLB PREFETCH REQUESTED:          0 ISSUED:          0 USEFUL:          0 USELESS:          0
cpu0_ITLB AVERAGE MISS LATENCY: 3.53 cycles
cpu0_L1D TOTAL        ACCESS:  178225433 HIT:  175294011 MISS:    2931422
cpu0_L1D LOAD         ACCESS:   92706752 HIT:   90305703 MISS:    2401049
cpu0_L1D RFO          ACCESS:          0 HIT:          0 MISS:          0
cpu0_L1D PREFETCH     ACCESS:          0 HIT:          0 MISS:          0
cpu0_L1D WRITE        ACCESS:   85490149 HIT:   84986308 MISS:     503841
cpu0_L1D TRANSLATION  ACCESS:      28532 HIT:       2000 MISS:      26532
cpu0_L1D PREFETCH REQUESTED:          0 ISSUED:          0 USEFUL:          0 USELESS:          0
cpu0_L1D AVERAGE MISS LATENCY: 64.67 cycles
cpu0_L1I TOTAL        ACCESS:   10511144 HIT:    8611824 MISS:    1899320
cpu0_L1I LOAD         ACCESS:   10511144 HIT:    8611824 MISS:    1899320
cpu0_L1I RFO          ACCESS:          0 HIT:          0 MISS:          0
cpu0_L1I PREFETCH     ACCESS:          0 HIT:          0 MISS:          0
cpu0_L1I WRITE        ACCESS:          0 HIT:          0 MISS:          0
cpu0_L1I TRANSLATION  ACCESS:          0 HIT:          0 MISS:          0
cpu0_L1I PREFETCH REQUESTED:          0 ISSUED:          0 USEFUL:          0 USELESS:          0
cpu0_L1I AVERAGE MISS LATENCY: 11.52 cycles
cpu0_L2C TOTAL        ACCESS:    3235903 HIT:    2807170 MISS:     428733
cpu0_L2C LOAD         ACCESS:    2709111 HIT:    2332184 MISS:     376927
cpu0_L2C RFO          ACCESS:     135539 HIT:     102844 MISS:      32695
cpu0_L2C PREFETCH     ACCESS:          0 HIT:          0 MISS:          0
cpu0_L2C WRITE        ACCESS:     364809 HIT:     363890 MISS:        919
cpu0_L2C TRANSLATION  ACCESS:      26444 HIT:       8252 MISS:      18192
cpu0_L2C PREFETCH REQUESTED:          0 ISSUED:          0 USEFUL:          0 USELESS:          0
cpu0_L2C AVERAGE MISS LATENCY: 455.6 cycles
cpu0_STLB TOTAL        ACCESS:    1009949 HIT:     983260 MISS:      26689
cpu0_STLB LOAD         ACCESS:    1009949 HIT:     983260 MISS:      26689
cpu0_STLB RFO          ACCESS:          0 HIT:          0 MISS:          0
cpu0_STLB PREFETCH     ACCESS:          0 HIT:          0 MISS:          0
cpu0_STLB WRITE        ACCESS:          0 HIT:          0 MISS:          0
cpu0_STLB TRANSLATION  ACCESS:          0 HIT:          0 MISS:          0
cpu0_STLB PREFETCH REQUESTED:          0 ISSUED:          0 USEFUL:          0 USELESS:          0
cpu0_STLB AVERAGE MISS LATENCY: 597.9 cycles

DRAM Statistics

Channel 0 RQ ROW_BUFFER_HIT:      77518
  ROW_BUFFER_MISS:     348125
 AVG DBUS CONGESTED CYCLE: 3.893
WQ ROW_BUFFER_HIT: Channel 0 
  ROW_BUFFER_MISS:       5865
  FULL:      46091
