WARNING: physical memory size is smaller than virtual memory size.

*** ChampSim Multicore Out-of-Order Simulator ***
Warmup Instructions: 50000000
Simulation Instructions: 600000000
Number of CPUs: 1
Page size: 4096

Off-chip DRAM Size: 4 GiB Channels: 1 Width: 64-bit Data Race: 3200 MT/s
Heartbeat CPU 0 instructions: 10000000 cycles: 2500061 heartbeat IPC: 4 cumulative IPC: 4 (Simulation time: 00 hr 00 min 36 sec)
Heartbeat CPU 0 instructions: 20000000 cycles: 5000061 heartbeat IPC: 4 cumulative IPC: 4 (Simulation time: 00 hr 01 min 10 sec)
Heartbeat CPU 0 instructions: 30000000 cycles: 7500061 heartbeat IPC: 4 cumulative IPC: 4 (Simulation time: 00 hr 01 min 45 sec)
Heartbeat CPU 0 instructions: 40000000 cycles: 10000061 heartbeat IPC: 4 cumulative IPC: 4 (Simulation time: 00 hr 02 min 16 sec)
Heartbeat CPU 0 instructions: 50000000 cycles: 12500061 heartbeat IPC: 4 cumulative IPC: 4 (Simulation time: 00 hr 02 min 46 sec)
Warmup finished CPU 0 instructions: 50000000 cycles: 12500062 cumulative IPC: 4 (Simulation time: 00 hr 02 min 46 sec)
Warmup complete CPU 0 instructions: 50000000 cycles: 12500062 cumulative IPC: 4 (Simulation time: 00 hr 02 min 46 sec)
Heartbeat CPU 0 instructions: 60000002 cycles: 16444059 heartbeat IPC: 2.535 cumulative IPC: 2.535 (Simulation time: 00 hr 03 min 27 sec)
Heartbeat CPU 0 instructions: 70000003 cycles: 20759418 heartbeat IPC: 2.317 cumulative IPC: 2.421 (Simulation time: 00 hr 04 min 08 sec)
Heartbeat CPU 0 instructions: 80000003 cycles: 25227156 heartbeat IPC: 2.238 cumulative IPC: 2.357 (Simulation time: 00 hr 04 min 49 sec)
Heartbeat CPU 0 instructions: 90000000 cycles: 28918806 heartbeat IPC: 2.709 cumulative IPC: 2.436 (Simulation time: 00 hr 05 min 27 sec)
Heartbeat CPU 0 instructions: 100000003 cycles: 32815684 heartbeat IPC: 2.566 cumulative IPC: 2.461 (Simulation time: 00 hr 06 min 05 sec)
Heartbeat CPU 0 instructions: 110000002 cycles: 36916725 heartbeat IPC: 2.438 cumulative IPC: 2.457 (Simulation time: 00 hr 06 min 44 sec)
Heartbeat CPU 0 instructions: 120000001 cycles: 40632503 heartbeat IPC: 2.691 cumulative IPC: 2.488 (Simulation time: 00 hr 07 min 24 sec)
Heartbeat CPU 0 instructions: 130000003 cycles: 44402470 heartbeat IPC: 2.653 cumulative IPC: 2.508 (Simulation time: 00 hr 08 min 03 sec)
Heartbeat CPU 0 instructions: 140000002 cycles: 48535204 heartbeat IPC: 2.42 cumulative IPC: 2.498 (Simulation time: 00 hr 08 min 43 sec)
Heartbeat CPU 0 instructions: 150000001 cycles: 52587469 heartbeat IPC: 2.468 cumulative IPC: 2.495 (Simulation time: 00 hr 09 min 23 sec)
Heartbeat CPU 0 instructions: 160000000 cycles: 56245523 heartbeat IPC: 2.734 cumulative IPC: 2.515 (Simulation time: 00 hr 10 min 01 sec)
Heartbeat CPU 0 instructions: 170000001 cycles: 60418847 heartbeat IPC: 2.396 cumulative IPC: 2.504 (Simulation time: 00 hr 10 min 42 sec)
Heartbeat CPU 0 instructions: 180000001 cycles: 63878543 heartbeat IPC: 2.89 cumulative IPC: 2.53 (Simulation time: 00 hr 11 min 19 sec)
Heartbeat CPU 0 instructions: 190000002 cycles: 67461907 heartbeat IPC: 2.791 cumulative IPC: 2.547 (Simulation time: 00 hr 11 min 58 sec)
Heartbeat CPU 0 instructions: 200000002 cycles: 71245565 heartbeat IPC: 2.643 cumulative IPC: 2.553 (Simulation time: 00 hr 12 min 37 sec)
Heartbeat CPU 0 instructions: 210000000 cycles: 74884203 heartbeat IPC: 2.748 cumulative IPC: 2.565 (Simulation time: 00 hr 13 min 15 sec)
Heartbeat CPU 0 instructions: 220000001 cycles: 78749851 heartbeat IPC: 2.587 cumulative IPC: 2.566 (Simulation time: 00 hr 13 min 54 sec)
Heartbeat CPU 0 instructions: 230000002 cycles: 82590317 heartbeat IPC: 2.604 cumulative IPC: 2.568 (Simulation time: 00 hr 14 min 32 sec)
Heartbeat CPU 0 instructions: 240000001 cycles: 86794318 heartbeat IPC: 2.379 cumulative IPC: 2.557 (Simulation time: 00 hr 15 min 13 sec)
Heartbeat CPU 0 instructions: 250000003 cycles: 91359169 heartbeat IPC: 2.191 cumulative IPC: 2.536 (Simulation time: 00 hr 15 min 53 sec)
Heartbeat CPU 0 instructions: 260000000 cycles: 95153042 heartbeat IPC: 2.636 cumulative IPC: 2.541 (Simulation time: 00 hr 16 min 32 sec)
Heartbeat CPU 0 instructions: 270000003 cycles: 102297962 heartbeat IPC: 1.4 cumulative IPC: 2.45 (Simulation time: 00 hr 17 min 28 sec)
Heartbeat CPU 0 instructions: 280000000 cycles: 113519733 heartbeat IPC: 0.8911 cumulative IPC: 2.277 (Simulation time: 00 hr 19 min 35 sec)
Heartbeat CPU 0 instructions: 290000000 cycles: 123644417 heartbeat IPC: 0.9877 cumulative IPC: 2.159 (Simulation time: 00 hr 21 min 46 sec)
Heartbeat CPU 0 instructions: 300000003 cycles: 131069513 heartbeat IPC: 1.347 cumulative IPC: 2.108 (Simulation time: 00 hr 23 min 41 sec)
Heartbeat CPU 0 instructions: 310000004 cycles: 141919362 heartbeat IPC: 0.9217 cumulative IPC: 2.009 (Simulation time: 00 hr 26 min 07 sec)
Heartbeat CPU 0 instructions: 320000004 cycles: 147039561 heartbeat IPC: 1.953 cumulative IPC: 2.007 (Simulation time: 00 hr 27 min 12 sec)
Heartbeat CPU 0 instructions: 330000000 cycles: 151116764 heartbeat IPC: 2.453 cumulative IPC: 2.02 (Simulation time: 00 hr 27 min 53 sec)
Heartbeat CPU 0 instructions: 340000001 cycles: 155475080 heartbeat IPC: 2.294 cumulative IPC: 2.028 (Simulation time: 00 hr 28 min 34 sec)
Heartbeat CPU 0 instructions: 350000004 cycles: 159960521 heartbeat IPC: 2.229 cumulative IPC: 2.034 (Simulation time: 00 hr 29 min 17 sec)
Heartbeat CPU 0 instructions: 360000003 cycles: 164147462 heartbeat IPC: 2.388 cumulative IPC: 2.044 (Simulation time: 00 hr 29 min 58 sec)
Heartbeat CPU 0 instructions: 370000001 cycles: 168216853 heartbeat IPC: 2.457 cumulative IPC: 2.055 (Simulation time: 00 hr 30 min 39 sec)
Heartbeat CPU 0 instructions: 380000004 cycles: 172139140 heartbeat IPC: 2.55 cumulative IPC: 2.067 (Simulation time: 00 hr 31 min 20 sec)
Heartbeat CPU 0 instructions: 390000002 cycles: 176294331 heartbeat IPC: 2.407 cumulative IPC: 2.076 (Simulation time: 00 hr 32 min 01 sec)
Heartbeat CPU 0 instructions: 400000000 cycles: 180692324 heartbeat IPC: 2.274 cumulative IPC: 2.081 (Simulation time: 00 hr 32 min 44 sec)
Heartbeat CPU 0 instructions: 410000000 cycles: 188709862 heartbeat IPC: 1.247 cumulative IPC: 2.043 (Simulation time: 00 hr 33 min 44 sec)
Heartbeat CPU 0 instructions: 420000003 cycles: 200625837 heartbeat IPC: 0.8392 cumulative IPC: 1.967 (Simulation time: 00 hr 35 min 04 sec)
Heartbeat CPU 0 instructions: 430000000 cycles: 208148730 heartbeat IPC: 1.329 cumulative IPC: 1.942 (Simulation time: 00 hr 36 min 05 sec)
Heartbeat CPU 0 instructions: 440000004 cycles: 215447886 heartbeat IPC: 1.37 cumulative IPC: 1.922 (Simulation time: 00 hr 37 min 04 sec)
Heartbeat CPU 0 instructions: 450000000 cycles: 222462396 heartbeat IPC: 1.426 cumulative IPC: 1.905 (Simulation time: 00 hr 38 min 01 sec)
Heartbeat CPU 0 instructions: 460000002 cycles: 234338559 heartbeat IPC: 0.842 cumulative IPC: 1.848 (Simulation time: 00 hr 39 min 21 sec)
Heartbeat CPU 0 instructions: 470000003 cycles: 243823083 heartbeat IPC: 1.054 cumulative IPC: 1.816 (Simulation time: 00 hr 40 min 30 sec)
Heartbeat CPU 0 instructions: 480000003 cycles: 248164306 heartbeat IPC: 2.303 cumulative IPC: 1.825 (Simulation time: 00 hr 41 min 12 sec)
Heartbeat CPU 0 instructions: 490000001 cycles: 252831345 heartbeat IPC: 2.143 cumulative IPC: 1.831 (Simulation time: 00 hr 41 min 56 sec)
Heartbeat CPU 0 instructions: 500000002 cycles: 257295029 heartbeat IPC: 2.24 cumulative IPC: 1.838 (Simulation time: 00 hr 42 min 39 sec)
Heartbeat CPU 0 instructions: 510000000 cycles: 261512375 heartbeat IPC: 2.371 cumulative IPC: 1.847 (Simulation time: 00 hr 43 min 21 sec)
Heartbeat CPU 0 instructions: 520000000 cycles: 265879894 heartbeat IPC: 2.29 cumulative IPC: 1.855 (Simulation time: 00 hr 44 min 03 sec)
Heartbeat CPU 0 instructions: 530000001 cycles: 277275346 heartbeat IPC: 0.8775 cumulative IPC: 1.813 (Simulation time: 00 hr 45 min 17 sec)
Heartbeat CPU 0 instructions: 540000000 cycles: 288226396 heartbeat IPC: 0.9132 cumulative IPC: 1.777 (Simulation time: 00 hr 46 min 30 sec)
Heartbeat CPU 0 instructions: 550000004 cycles: 301030845 heartbeat IPC: 0.781 cumulative IPC: 1.733 (Simulation time: 00 hr 47 min 50 sec)
Heartbeat CPU 0 instructions: 560000004 cycles: 305249522 heartbeat IPC: 2.37 cumulative IPC: 1.742 (Simulation time: 00 hr 48 min 29 sec)
Heartbeat CPU 0 instructions: 570000001 cycles: 308366990 heartbeat IPC: 3.208 cumulative IPC: 1.758 (Simulation time: 00 hr 49 min 02 sec)
Heartbeat CPU 0 instructions: 580000003 cycles: 311903729 heartbeat IPC: 2.827 cumulative IPC: 1.77 (Simulation time: 00 hr 49 min 37 sec)
Heartbeat CPU 0 instructions: 590000002 cycles: 315521091 heartbeat IPC: 2.764 cumulative IPC: 1.782 (Simulation time: 00 hr 50 min 12 sec)
Heartbeat CPU 0 instructions: 600000003 cycles: 318583146 heartbeat IPC: 3.266 cumulative IPC: 1.797 (Simulation time: 00 hr 50 min 45 sec)
Heartbeat CPU 0 instructions: 610000001 cycles: 322088596 heartbeat IPC: 2.853 cumulative IPC: 1.809 (Simulation time: 00 hr 51 min 17 sec)
Heartbeat CPU 0 instructions: 620000000 cycles: 326102863 heartbeat IPC: 2.491 cumulative IPC: 1.818 (Simulation time: 00 hr 51 min 49 sec)
Heartbeat CPU 0 instructions: 630000002 cycles: 329468066 heartbeat IPC: 2.972 cumulative IPC: 1.83 (Simulation time: 00 hr 52 min 20 sec)
Heartbeat CPU 0 instructions: 640000004 cycles: 333476882 heartbeat IPC: 2.495 cumulative IPC: 1.838 (Simulation time: 00 hr 52 min 50 sec)
Heartbeat CPU 0 instructions: 650000001 cycles: 337298924 heartbeat IPC: 2.616 cumulative IPC: 1.847 (Simulation time: 00 hr 53 min 18 sec)
Simulation finished CPU 0 instructions: 600000001 cycles: 324798863 cumulative IPC: 1.847 (Simulation time: 00 hr 53 min 18 sec)
Simulation complete CPU 0 instructions: 600000001 cycles: 324798863 cumulative IPC: 1.847 (Simulation time: 00 hr 53 min 18 sec)

ChampSim completed all CPUs

=== Simulation ===
CPU 0 runs traces/400.perlbench-50B.champsimtrace.xz
Region of Interest Statistics

CPU 0 cumulative IPC: 1.847 instructions: 600000001 cycles: 324798863
CPU 0 Branch Prediction Accuracy: 96.2% MPKI: 7.839 Average ROB Occupancy at Mispredict: 43.39
Branch type MPKI
BRANCH_DIRECT_JUMP: 0.0176
BRANCH_INDIRECT: 0.38
BRANCH_CONDITIONAL: 6.99
BRANCH_DIRECT_CALL: 0.0067
BRANCH_INDIRECT_CALL: 0.431
BRANCH_RETURN: 0.0161

LLC TOTAL        ACCESS:     566624 HIT:     218539 MISS:     348085
LLC LOAD         ACCESS:     377113 HIT:     113345 MISS:     263768
LLC RFO          ACCESS:      32907 HIT:      13493 MISS:      19414
LLC PREFETCH     ACCESS:      54483 HIT:      25760 MISS:      28723
LLC WRITE        ACCESS:      83957 HIT:      60888 MISS:      23069
LLC TRANSLATION  ACCESS:      18164 HIT:       5053 MISS:      13111
LLC PREFETCH REQUESTED:      54483 ISSUED:      54483 USEFUL:      18836 USELESS:       4438
LLC AVERAGE MISS LATENCY: 509.1 cycles
cpu0_DTLB TOTAL        ACCESS:  146479746 HIT:  145177120 MISS:    1302626
cpu0_DTLB LOAD         ACCESS:  146479746 HIT:  145177120 MISS:    1302626
cpu0_DTLB RFO          ACCESS:          0 HIT:          0 MISS:          0
cpu0_DTLB PREFETCH     ACCESS:          0 HIT:          0 MISS:          0
cpu0_DTLB WRITE        ACCESS:          0 HIT:          0 MISS:          0
cpu0_DTLB TRANSLATION  ACCESS:          0 HIT:          0 MISS:          0
cpu0_DTLB PREFETCH REQUESTED:          0 ISSUED:          0 USEFUL:          0 USELESS:          0
cpu0_DTLB AVERAGE MISS LATENCY: 12.41 cycles
cpu0_ITLB TOTAL        ACCESS:    8990627 HIT:    8805890 MISS:     184737
cpu0_ITLB LOAD         ACCESS:    8990627 HIT:    8805890 MISS:     184737
cpu0_ITLB RFO          ACCESS:          0 HIT:          0 MISS:          0
cpu0_ITLB PREFETCH     ACCESS:          0 HIT:          0 MISS:          0
cpu0_ITLB WRITE        ACCESS:          0 HIT:          0 MISS:          0
cpu0_ITLB TRANSLATION  ACCESS:          0 HIT:          0 MISS:          0
cpu0_ITLB PREFETCH REQUESTED:          0 ISSUED:          0 USEFUL:          0 USELESS:          0
cpu0_ITLB AVERAGE MISS LATENCY: 3.634 cycles
cpu0_L1D TOTAL        ACCESS:  193296268 HIT:  190453596 MISS:    2842672
cpu0_L1D LOAD         ACCESS:  107449293 HIT:  105109441 MISS:    2339852
cpu0_L1D RFO          ACCESS:          0 HIT:          0 MISS:          0
cpu0_L1D PREFETCH     ACCESS:          0 HIT:          0 MISS:          0
cpu0_L1D WRITE        ACCESS:   85818450 HIT:   85342139 MISS:     476311
cpu0_L1D TRANSLATION  ACCESS:      28525 HIT:       2016 MISS:      26509
cpu0_L1D PREFETCH REQUESTED:          0 ISSUED:          0 USEFUL:          0 USELESS:          0
cpu0_L1D AVERAGE MISS LATENCY: 60.88 cycles
cpu0_L1I TOTAL        ACCESS:   10424522 HIT:    8661046 MISS:    1763476
cpu0_L1I LOAD         ACCESS:   10424522 HIT:    8661046 MISS:    1763476
cpu0_L1I RFO          ACCESS:          0 HIT:          0 MISS:          0
cpu0_L1I PREFETCH     ACCESS:          0 HIT:          0 MISS:          0
cpu0_L1I WRITE        ACCESS:          0 HIT:          0 MISS:          0
cpu0_L1I TRANSLATION  ACCESS:          0 HIT:          0 MISS:          0
cpu0_L1I PREFETCH REQUESTED:          0 ISSUED:          0 USEFUL:          0 USELESS:          0
cpu0_L1I AVERAGE MISS LATENCY: 10.13 cycles
cpu0_L2C TOTAL        ACCESS:    3232460 HIT:    2803342 MISS:     429118
cpu0_L2C LOAD         ACCESS:    2710071 HIT:    2332958 MISS:     377113
cpu0_L2C RFO          ACCESS:     133295 HIT:     100388 MISS:      32907
cpu0_L2C PREFETCH     ACCESS:          0 HIT:          0 MISS:          0
cpu0_L2C WRITE        ACCESS:     362652 HIT:     361718 MISS:        934
cpu0_L2C TRANSLATION  ACCESS:      26442 HIT:       8278 MISS:      18164
cpu0_L2C PREFETCH REQUESTED:          0 ISSUED:          0 USEFUL:          0 USELESS:          0
cpu0_L2C AVERAGE MISS LATENCY: 394.2 cycles
cpu0_STLB TOTAL        ACCESS:    1008298 HIT:     981605 MISS:      26693
cpu0_STLB LOAD         ACCESS:    1008298 HIT:     981605 MISS:      26693
cpu0_STLB RFO          ACCESS:          0 HIT:          0 MISS:          0
cpu0_STLB PREFETCH     ACCESS:          0 HIT:          0 MISS:          0
cpu0_STLB WRITE        ACCESS:          0 HIT:          0 MISS:          0
cpu0_STLB TRANSLATION  ACCESS:          0 HIT:          0 MISS:          0
cpu0_STLB PREFETCH REQUESTED:          0 ISSUED:          0 USEFUL:          0 USELESS:          0
cpu0_STLB AVERAGE MISS LATENCY: 388.2 cycles

DRAM Statistics

Channel 0 RQ ROW_BUFFER_HIT:      62976
  ROW_BUFFER_MISS:     256746
 AVG DBUS CONGESTED CYCLE: 3.805
WQ ROW_BUFFER_HIT: Channel 0 
  ROW_BUFFER_MISS:       9700
  FULL:      35752
Final OPTGen Hits: 3689
Final OPTGen Access: 6963
Final OPTGEN Hit Rate: 52.9801
