WARNING: physical memory size is smaller than virtual memory size.

*** ChampSim Multicore Out-of-Order Simulator ***
Warmup Instructions: 50000000
Simulation Instructions: 600000000
Number of CPUs: 1
Page size: 4096

Off-chip DRAM Size: 4 GiB Channels: 1 Width: 64-bit Data Race: 3200 MT/s
Heartbeat CPU 0 instructions: 10000001 cycles: 2500319 heartbeat IPC: 3.999 cumulative IPC: 3.999 (Simulation time: 00 hr 03 min 41 sec)
Heartbeat CPU 0 instructions: 20000002 cycles: 5037096 heartbeat IPC: 3.942 cumulative IPC: 3.971 (Simulation time: 00 hr 07 min 19 sec)
Heartbeat CPU 0 instructions: 30000002 cycles: 7537096 heartbeat IPC: 4 cumulative IPC: 3.98 (Simulation time: 00 hr 10 min 34 sec)
Heartbeat CPU 0 instructions: 40000002 cycles: 10037096 heartbeat IPC: 4 cumulative IPC: 3.985 (Simulation time: 00 hr 13 min 56 sec)
Heartbeat CPU 0 instructions: 50000002 cycles: 12537096 heartbeat IPC: 4 cumulative IPC: 3.988 (Simulation time: 00 hr 17 min 16 sec)
Warmup finished CPU 0 instructions: 50000002 cycles: 12537097 cumulative IPC: 3.988 (Simulation time: 00 hr 17 min 16 sec)
Warmup complete CPU 0 instructions: 50000002 cycles: 12537097 cumulative IPC: 3.988 (Simulation time: 00 hr 17 min 16 sec)
Heartbeat CPU 0 instructions: 60000000 cycles: 17726482 heartbeat IPC: 1.927 cumulative IPC: 1.927 (Simulation time: 00 hr 22 min 21 sec)
Heartbeat CPU 0 instructions: 70000002 cycles: 22629946 heartbeat IPC: 2.039 cumulative IPC: 1.982 (Simulation time: 00 hr 27 min 21 sec)
Heartbeat CPU 0 instructions: 80000001 cycles: 28004389 heartbeat IPC: 1.861 cumulative IPC: 1.94 (Simulation time: 00 hr 32 min 20 sec)
Heartbeat CPU 0 instructions: 90000001 cycles: 32879315 heartbeat IPC: 2.051 cumulative IPC: 1.966 (Simulation time: 00 hr 36 min 35 sec)
Heartbeat CPU 0 instructions: 100000000 cycles: 37999681 heartbeat IPC: 1.953 cumulative IPC: 1.964 (Simulation time: 00 hr 40 min 46 sec)
Heartbeat CPU 0 instructions: 110000000 cycles: 42891612 heartbeat IPC: 2.044 cumulative IPC: 1.977 (Simulation time: 00 hr 44 min 48 sec)
Heartbeat CPU 0 instructions: 120000001 cycles: 48095869 heartbeat IPC: 1.922 cumulative IPC: 1.969 (Simulation time: 00 hr 48 min 42 sec)
Heartbeat CPU 0 instructions: 130000001 cycles: 53261158 heartbeat IPC: 1.936 cumulative IPC: 1.964 (Simulation time: 00 hr 52 min 29 sec)
Heartbeat CPU 0 instructions: 140000001 cycles: 58583397 heartbeat IPC: 1.879 cumulative IPC: 1.955 (Simulation time: 00 hr 56 min 12 sec)
Heartbeat CPU 0 instructions: 150000001 cycles: 63918290 heartbeat IPC: 1.874 cumulative IPC: 1.946 (Simulation time: 00 hr 59 min 40 sec)
Heartbeat CPU 0 instructions: 160000004 cycles: 69141088 heartbeat IPC: 1.915 cumulative IPC: 1.943 (Simulation time: 01 hr 03 min 01 sec)
Heartbeat CPU 0 instructions: 170000000 cycles: 78443241 heartbeat IPC: 1.075 cumulative IPC: 1.821 (Simulation time: 01 hr 08 min 06 sec)
Heartbeat CPU 0 instructions: 180000004 cycles: 87991172 heartbeat IPC: 1.047 cumulative IPC: 1.723 (Simulation time: 01 hr 13 min 33 sec)
Heartbeat CPU 0 instructions: 190000001 cycles: 98608981 heartbeat IPC: 0.9418 cumulative IPC: 1.627 (Simulation time: 01 hr 19 min 20 sec)
Heartbeat CPU 0 instructions: 200000003 cycles: 103371921 heartbeat IPC: 2.1 cumulative IPC: 1.651 (Simulation time: 01 hr 22 min 36 sec)
Heartbeat CPU 0 instructions: 210000001 cycles: 108286958 heartbeat IPC: 2.035 cumulative IPC: 1.671 (Simulation time: 01 hr 25 min 52 sec)
Heartbeat CPU 0 instructions: 220000000 cycles: 113109339 heartbeat IPC: 2.074 cumulative IPC: 1.69 (Simulation time: 01 hr 29 min 14 sec)
Heartbeat CPU 0 instructions: 230000002 cycles: 118430524 heartbeat IPC: 1.879 cumulative IPC: 1.7 (Simulation time: 01 hr 32 min 34 sec)
Heartbeat CPU 0 instructions: 240000000 cycles: 123282936 heartbeat IPC: 2.061 cumulative IPC: 1.716 (Simulation time: 01 hr 35 min 55 sec)
Heartbeat CPU 0 instructions: 250000000 cycles: 128434832 heartbeat IPC: 1.941 cumulative IPC: 1.726 (Simulation time: 01 hr 39 min 19 sec)
Heartbeat CPU 0 instructions: 260000000 cycles: 133450427 heartbeat IPC: 1.994 cumulative IPC: 1.737 (Simulation time: 01 hr 42 min 38 sec)
Heartbeat CPU 0 instructions: 270000002 cycles: 138336908 heartbeat IPC: 2.046 cumulative IPC: 1.749 (Simulation time: 01 hr 45 min 57 sec)
Heartbeat CPU 0 instructions: 280000002 cycles: 143245239 heartbeat IPC: 2.037 cumulative IPC: 1.76 (Simulation time: 01 hr 49 min 20 sec)
Heartbeat CPU 0 instructions: 290000001 cycles: 148623230 heartbeat IPC: 1.859 cumulative IPC: 1.764 (Simulation time: 01 hr 52 min 56 sec)
Heartbeat CPU 0 instructions: 300000003 cycles: 153695480 heartbeat IPC: 1.972 cumulative IPC: 1.771 (Simulation time: 01 hr 56 min 23 sec)
Heartbeat CPU 0 instructions: 310000001 cycles: 159004042 heartbeat IPC: 1.884 cumulative IPC: 1.775 (Simulation time: 01 hr 59 min 55 sec)
Heartbeat CPU 0 instructions: 320000003 cycles: 164221800 heartbeat IPC: 1.917 cumulative IPC: 1.78 (Simulation time: 02 hr 03 min 19 sec)
Heartbeat CPU 0 instructions: 330000003 cycles: 169517491 heartbeat IPC: 1.888 cumulative IPC: 1.784 (Simulation time: 02 hr 06 min 41 sec)
Heartbeat CPU 0 instructions: 340000000 cycles: 179154773 heartbeat IPC: 1.038 cumulative IPC: 1.741 (Simulation time: 02 hr 11 min 56 sec)
Heartbeat CPU 0 instructions: 350000000 cycles: 189526596 heartbeat IPC: 0.9642 cumulative IPC: 1.695 (Simulation time: 02 hr 17 min 32 sec)
Heartbeat CPU 0 instructions: 360000004 cycles: 200430008 heartbeat IPC: 0.9171 cumulative IPC: 1.65 (Simulation time: 02 hr 23 min 20 sec)
Heartbeat CPU 0 instructions: 370000000 cycles: 204827540 heartbeat IPC: 2.274 cumulative IPC: 1.664 (Simulation time: 02 hr 26 min 26 sec)
Heartbeat CPU 0 instructions: 380000001 cycles: 209745234 heartbeat IPC: 2.033 cumulative IPC: 1.673 (Simulation time: 02 hr 29 min 42 sec)
Heartbeat CPU 0 instructions: 390000002 cycles: 214563953 heartbeat IPC: 2.075 cumulative IPC: 1.683 (Simulation time: 02 hr 33 min 01 sec)
Heartbeat CPU 0 instructions: 400000004 cycles: 219494859 heartbeat IPC: 2.028 cumulative IPC: 1.691 (Simulation time: 02 hr 36 min 26 sec)
Heartbeat CPU 0 instructions: 410000000 cycles: 224222123 heartbeat IPC: 2.115 cumulative IPC: 1.701 (Simulation time: 02 hr 39 min 38 sec)
Heartbeat CPU 0 instructions: 420000000 cycles: 229460025 heartbeat IPC: 1.909 cumulative IPC: 1.706 (Simulation time: 02 hr 43 min 17 sec)
Heartbeat CPU 0 instructions: 430000001 cycles: 233932139 heartbeat IPC: 2.236 cumulative IPC: 1.716 (Simulation time: 02 hr 46 min 25 sec)
Heartbeat CPU 0 instructions: 440000000 cycles: 239279684 heartbeat IPC: 1.87 cumulative IPC: 1.72 (Simulation time: 02 hr 49 min 58 sec)
Heartbeat CPU 0 instructions: 450000002 cycles: 243945172 heartbeat IPC: 2.143 cumulative IPC: 1.729 (Simulation time: 02 hr 53 min 05 sec)
Heartbeat CPU 0 instructions: 460000000 cycles: 248725709 heartbeat IPC: 2.092 cumulative IPC: 1.736 (Simulation time: 02 hr 56 min 19 sec)
Heartbeat CPU 0 instructions: 470000000 cycles: 253705191 heartbeat IPC: 2.008 cumulative IPC: 1.742 (Simulation time: 02 hr 59 min 43 sec)
Heartbeat CPU 0 instructions: 480000003 cycles: 258530203 heartbeat IPC: 2.073 cumulative IPC: 1.748 (Simulation time: 03 hr 02 min 57 sec)
Heartbeat CPU 0 instructions: 490000000 cycles: 263136981 heartbeat IPC: 2.171 cumulative IPC: 1.756 (Simulation time: 03 hr 06 min 07 sec)
Heartbeat CPU 0 instructions: 500000000 cycles: 268158493 heartbeat IPC: 1.991 cumulative IPC: 1.76 (Simulation time: 03 hr 09 min 31 sec)
Heartbeat CPU 0 instructions: 510000003 cycles: 273869179 heartbeat IPC: 1.751 cumulative IPC: 1.76 (Simulation time: 03 hr 13 min 07 sec)
Heartbeat CPU 0 instructions: 520000001 cycles: 278558407 heartbeat IPC: 2.133 cumulative IPC: 1.767 (Simulation time: 03 hr 16 min 23 sec)
Heartbeat CPU 0 instructions: 530000002 cycles: 283727199 heartbeat IPC: 1.935 cumulative IPC: 1.77 (Simulation time: 03 hr 19 min 51 sec)
Heartbeat CPU 0 instructions: 540000000 cycles: 288840895 heartbeat IPC: 1.956 cumulative IPC: 1.773 (Simulation time: 03 hr 23 min 22 sec)
Heartbeat CPU 0 instructions: 550000001 cycles: 293654700 heartbeat IPC: 2.077 cumulative IPC: 1.779 (Simulation time: 03 hr 26 min 49 sec)
Heartbeat CPU 0 instructions: 560000000 cycles: 298942977 heartbeat IPC: 1.891 cumulative IPC: 1.781 (Simulation time: 03 hr 30 min 17 sec)
Heartbeat CPU 0 instructions: 570000004 cycles: 306110333 heartbeat IPC: 1.395 cumulative IPC: 1.771 (Simulation time: 03 hr 34 min 36 sec)
Heartbeat CPU 0 instructions: 580000003 cycles: 316779165 heartbeat IPC: 0.9373 cumulative IPC: 1.742 (Simulation time: 03 hr 40 min 08 sec)
Heartbeat CPU 0 instructions: 590000002 cycles: 330375743 heartbeat IPC: 0.7355 cumulative IPC: 1.699 (Simulation time: 03 hr 46 min 50 sec)
Heartbeat CPU 0 instructions: 600000000 cycles: 335012103 heartbeat IPC: 2.157 cumulative IPC: 1.706 (Simulation time: 03 hr 49 min 57 sec)
Heartbeat CPU 0 instructions: 610000002 cycles: 339491775 heartbeat IPC: 2.232 cumulative IPC: 1.713 (Simulation time: 03 hr 52 min 47 sec)
Heartbeat CPU 0 instructions: 620000000 cycles: 344287636 heartbeat IPC: 2.085 cumulative IPC: 1.718 (Simulation time: 03 hr 55 min 20 sec)
Heartbeat CPU 0 instructions: 630000002 cycles: 349358114 heartbeat IPC: 1.972 cumulative IPC: 1.722 (Simulation time: 03 hr 57 min 53 sec)
Heartbeat CPU 0 instructions: 640000001 cycles: 354199970 heartbeat IPC: 2.065 cumulative IPC: 1.727 (Simulation time: 04 hr 00 min 20 sec)
Heartbeat CPU 0 instructions: 650000000 cycles: 358743990 heartbeat IPC: 2.201 cumulative IPC: 1.733 (Simulation time: 04 hr 02 min 25 sec)
Simulation finished CPU 0 instructions: 600000001 cycles: 346206895 cumulative IPC: 1.733 (Simulation time: 04 hr 02 min 25 sec)
Simulation complete CPU 0 instructions: 600000001 cycles: 346206895 cumulative IPC: 1.733 (Simulation time: 04 hr 02 min 25 sec)

ChampSim completed all CPUs

=== Simulation ===
CPU 0 runs traces/400.perlbench-41B.champsimtrace.xz
Region of Interest Statistics

CPU 0 cumulative IPC: 1.733 instructions: 600000001 cycles: 346206895
CPU 0 Branch Prediction Accuracy: 93.95% MPKI: 12.5 Average ROB Occupancy at Mispredict: 29.52
Branch type MPKI
BRANCH_DIRECT_JUMP: 0.0123
BRANCH_INDIRECT: 0.323
BRANCH_CONDITIONAL: 12
BRANCH_DIRECT_CALL: 0.0043
BRANCH_INDIRECT_CALL: 0.2
BRANCH_RETURN: 0.00828

LLC TOTAL        ACCESS:     721515 HIT:     307504 MISS:     414011
LLC LOAD         ACCESS:     308313 HIT:     137824 MISS:     170489
LLC RFO          ACCESS:      25144 HIT:      10823 MISS:      14321
LLC PREFETCH     ACCESS:     308313 HIT:     127647 MISS:     180666
LLC WRITE        ACCESS:      64191 HIT:      30375 MISS:      33816
LLC TRANSLATION  ACCESS:      15554 HIT:        835 MISS:      14719
LLC PREFETCH REQUESTED:     308313 ISSUED:     308313 USEFUL:      39620 USELESS:      98024
LLC AVERAGE MISS LATENCY: 523.1 cycles
cpu0_DTLB TOTAL        ACCESS:  153660010 HIT:  152983405 MISS:     676605
cpu0_DTLB LOAD         ACCESS:  153660010 HIT:  152983405 MISS:     676605
cpu0_DTLB RFO          ACCESS:          0 HIT:          0 MISS:          0
cpu0_DTLB PREFETCH     ACCESS:          0 HIT:          0 MISS:          0
cpu0_DTLB WRITE        ACCESS:          0 HIT:          0 MISS:          0
cpu0_DTLB TRANSLATION  ACCESS:          0 HIT:          0 MISS:          0
cpu0_DTLB PREFETCH REQUESTED:          0 ISSUED:          0 USEFUL:          0 USELESS:          0
cpu0_DTLB AVERAGE MISS LATENCY: 20.69 cycles
cpu0_ITLB TOTAL        ACCESS:    4839426 HIT:    4781402 MISS:      58024
cpu0_ITLB LOAD         ACCESS:    4839426 HIT:    4781402 MISS:      58024
cpu0_ITLB RFO          ACCESS:          0 HIT:          0 MISS:          0
cpu0_ITLB PREFETCH     ACCESS:          0 HIT:          0 MISS:          0
cpu0_ITLB WRITE        ACCESS:          0 HIT:          0 MISS:          0
cpu0_ITLB TRANSLATION  ACCESS:          0 HIT:          0 MISS:          0
cpu0_ITLB PREFETCH REQUESTED:          0 ISSUED:          0 USEFUL:          0 USELESS:          0
cpu0_ITLB AVERAGE MISS LATENCY: 8.389 cycles
cpu0_L1D TOTAL        ACCESS:  200292040 HIT:  198983705 MISS:    1308335
cpu0_L1D LOAD         ACCESS:  117048185 HIT:  116043691 MISS:    1004494
cpu0_L1D RFO          ACCESS:          0 HIT:          0 MISS:          0
cpu0_L1D PREFETCH     ACCESS:          0 HIT:          0 MISS:          0
cpu0_L1D WRITE        ACCESS:   83219386 HIT:   82938436 MISS:     280950
cpu0_L1D TRANSLATION  ACCESS:      24469 HIT:       1578 MISS:      22891
cpu0_L1D PREFETCH REQUESTED:          0 ISSUED:          0 USEFUL:          0 USELESS:          0
cpu0_L1D AVERAGE MISS LATENCY: 96.23 cycles
cpu0_L1I TOTAL        ACCESS:    5581334 HIT:    4819380 MISS:     761954
cpu0_L1I LOAD         ACCESS:    5581334 HIT:    4819380 MISS:     761954
cpu0_L1I RFO          ACCESS:          0 HIT:          0 MISS:          0
cpu0_L1I PREFETCH     ACCESS:          0 HIT:          0 MISS:          0
cpu0_L1I WRITE        ACCESS:          0 HIT:          0 MISS:          0
cpu0_L1I TRANSLATION  ACCESS:          0 HIT:          0 MISS:          0
cpu0_L1I PREFETCH REQUESTED:          0 ISSUED:          0 USEFUL:          0 USELESS:          0
cpu0_L1I AVERAGE MISS LATENCY: 15.79 cycles
cpu0_L2C TOTAL        ACCESS:    1382523 HIT:    1032647 MISS:     349876
cpu0_L2C LOAD         ACCESS:    1125682 HIT:     817369 MISS:     308313
cpu0_L2C RFO          ACCESS:      63893 HIT:      38749 MISS:      25144
cpu0_L2C PREFETCH     ACCESS:          0 HIT:          0 MISS:          0
cpu0_L2C WRITE        ACCESS:     170141 HIT:     169276 MISS:        865
cpu0_L2C TRANSLATION  ACCESS:      22807 HIT:       7253 MISS:      15554
cpu0_L2C PREFETCH REQUESTED:          0 ISSUED:          0 USEFUL:          0 USELESS:          0
cpu0_L2C AVERAGE MISS LATENCY: 369.5 cycles
cpu0_STLB TOTAL        ACCESS:     505054 HIT:     482264 MISS:      22790
cpu0_STLB LOAD         ACCESS:     505054 HIT:     482264 MISS:      22790
cpu0_STLB RFO          ACCESS:          0 HIT:          0 MISS:          0
cpu0_STLB PREFETCH     ACCESS:          0 HIT:          0 MISS:          0
cpu0_STLB WRITE        ACCESS:          0 HIT:          0 MISS:          0
cpu0_STLB TRANSLATION  ACCESS:          0 HIT:          0 MISS:          0
cpu0_STLB PREFETCH REQUESTED:          0 ISSUED:          0 USEFUL:          0 USELESS:          0
cpu0_STLB AVERAGE MISS LATENCY: 498.7 cycles

DRAM Statistics

Channel 0 RQ ROW_BUFFER_HIT:      46984
  ROW_BUFFER_MISS:     279507
 AVG DBUS CONGESTED CYCLE: 3.869
WQ ROW_BUFFER_HIT: Channel 0 
  ROW_BUFFER_MISS:       6599
  FULL:      31717
