WARNING: physical memory size is smaller than virtual memory size.

*** ChampSim Multicore Out-of-Order Simulator ***
Warmup Instructions: 50000000
Simulation Instructions: 600000000
Number of CPUs: 1
Page size: 4096

CPU 0 Tage branch predictor
Off-chip DRAM Size: 4 GiB Channels: 1 Width: 64-bit Data Race: 3200 MT/s
Heartbeat CPU 0 instructions: 10000001 cycles: 2500319 heartbeat IPC: 3.999 cumulative IPC: 3.999 (Simulation time: 00 hr 04 min 38 sec)
Heartbeat CPU 0 instructions: 20000002 cycles: 5037086 heartbeat IPC: 3.942 cumulative IPC: 3.971 (Simulation time: 00 hr 09 min 16 sec)
Heartbeat CPU 0 instructions: 30000002 cycles: 7537086 heartbeat IPC: 4 cumulative IPC: 3.98 (Simulation time: 00 hr 13 min 29 sec)
Heartbeat CPU 0 instructions: 40000002 cycles: 10037086 heartbeat IPC: 4 cumulative IPC: 3.985 (Simulation time: 00 hr 17 min 45 sec)
Heartbeat CPU 0 instructions: 50000002 cycles: 12537086 heartbeat IPC: 4 cumulative IPC: 3.988 (Simulation time: 00 hr 22 min 01 sec)
Warmup finished CPU 0 instructions: 50000002 cycles: 12537087 cumulative IPC: 3.988 (Simulation time: 00 hr 22 min 01 sec)
Warmup complete CPU 0 instructions: 50000002 cycles: 12537087 cumulative IPC: 3.988 (Simulation time: 00 hr 22 min 01 sec)
Heartbeat CPU 0 instructions: 60000001 cycles: 15677724 heartbeat IPC: 3.184 cumulative IPC: 3.184 (Simulation time: 00 hr 27 min 10 sec)
Heartbeat CPU 0 instructions: 70000004 cycles: 18865709 heartbeat IPC: 3.137 cumulative IPC: 3.16 (Simulation time: 00 hr 32 min 20 sec)
Heartbeat CPU 0 instructions: 80000001 cycles: 22048487 heartbeat IPC: 3.142 cumulative IPC: 3.154 (Simulation time: 00 hr 37 min 45 sec)
Heartbeat CPU 0 instructions: 90000001 cycles: 25090483 heartbeat IPC: 3.287 cumulative IPC: 3.186 (Simulation time: 00 hr 42 min 47 sec)
Heartbeat CPU 0 instructions: 100000000 cycles: 28107766 heartbeat IPC: 3.314 cumulative IPC: 3.211 (Simulation time: 00 hr 47 min 53 sec)
Heartbeat CPU 0 instructions: 110000000 cycles: 31129135 heartbeat IPC: 3.31 cumulative IPC: 3.227 (Simulation time: 00 hr 52 min 51 sec)
Heartbeat CPU 0 instructions: 120000001 cycles: 34185169 heartbeat IPC: 3.272 cumulative IPC: 3.234 (Simulation time: 00 hr 57 min 53 sec)
Heartbeat CPU 0 instructions: 130000001 cycles: 37142539 heartbeat IPC: 3.381 cumulative IPC: 3.251 (Simulation time: 01 hr 03 min 01 sec)
Heartbeat CPU 0 instructions: 140000001 cycles: 40313232 heartbeat IPC: 3.154 cumulative IPC: 3.24 (Simulation time: 01 hr 08 min 11 sec)
Heartbeat CPU 0 instructions: 150000001 cycles: 43431088 heartbeat IPC: 3.207 cumulative IPC: 3.237 (Simulation time: 01 hr 13 min 19 sec)
Heartbeat CPU 0 instructions: 160000004 cycles: 46573783 heartbeat IPC: 3.182 cumulative IPC: 3.232 (Simulation time: 01 hr 18 min 28 sec)
Heartbeat CPU 0 instructions: 170000004 cycles: 53983031 heartbeat IPC: 1.35 cumulative IPC: 2.895 (Simulation time: 01 hr 26 min 43 sec)
Heartbeat CPU 0 instructions: 180000004 cycles: 62384388 heartbeat IPC: 1.19 cumulative IPC: 2.608 (Simulation time: 01 hr 35 min 45 sec)
Heartbeat CPU 0 instructions: 190000001 cycles: 71047601 heartbeat IPC: 1.154 cumulative IPC: 2.393 (Simulation time: 01 hr 45 min 09 sec)
Heartbeat CPU 0 instructions: 200000004 cycles: 74063366 heartbeat IPC: 3.316 cumulative IPC: 2.438 (Simulation time: 01 hr 50 min 13 sec)
Heartbeat CPU 0 instructions: 210000001 cycles: 77054092 heartbeat IPC: 3.344 cumulative IPC: 2.48 (Simulation time: 01 hr 55 min 13 sec)
Heartbeat CPU 0 instructions: 220000000 cycles: 79971503 heartbeat IPC: 3.428 cumulative IPC: 2.521 (Simulation time: 02 hr 00 min 09 sec)
Heartbeat CPU 0 instructions: 230000002 cycles: 83128345 heartbeat IPC: 3.168 cumulative IPC: 2.55 (Simulation time: 02 hr 05 min 20 sec)
Heartbeat CPU 0 instructions: 240000003 cycles: 86243244 heartbeat IPC: 3.21 cumulative IPC: 2.578 (Simulation time: 02 hr 10 min 26 sec)
Heartbeat CPU 0 instructions: 250000000 cycles: 89350428 heartbeat IPC: 3.218 cumulative IPC: 2.604 (Simulation time: 02 hr 15 min 34 sec)
Heartbeat CPU 0 instructions: 260000002 cycles: 92400395 heartbeat IPC: 3.279 cumulative IPC: 2.629 (Simulation time: 02 hr 20 min 41 sec)
Heartbeat CPU 0 instructions: 270000002 cycles: 95376965 heartbeat IPC: 3.36 cumulative IPC: 2.656 (Simulation time: 02 hr 25 min 38 sec)
Heartbeat CPU 0 instructions: 280000002 cycles: 98310857 heartbeat IPC: 3.408 cumulative IPC: 2.681 (Simulation time: 02 hr 30 min 40 sec)
Heartbeat CPU 0 instructions: 290000002 cycles: 101319409 heartbeat IPC: 3.324 cumulative IPC: 2.703 (Simulation time: 02 hr 35 min 57 sec)
Heartbeat CPU 0 instructions: 300000003 cycles: 104323347 heartbeat IPC: 3.329 cumulative IPC: 2.724 (Simulation time: 02 hr 41 min 03 sec)
Heartbeat CPU 0 instructions: 310000001 cycles: 107440607 heartbeat IPC: 3.208 cumulative IPC: 2.74 (Simulation time: 02 hr 46 min 10 sec)
Heartbeat CPU 0 instructions: 320000003 cycles: 110508490 heartbeat IPC: 3.26 cumulative IPC: 2.756 (Simulation time: 02 hr 51 min 15 sec)
Heartbeat CPU 0 instructions: 330000003 cycles: 113594261 heartbeat IPC: 3.241 cumulative IPC: 2.771 (Simulation time: 02 hr 56 min 25 sec)
Heartbeat CPU 0 instructions: 340000000 cycles: 121219101 heartbeat IPC: 1.312 cumulative IPC: 2.668 (Simulation time: 03 hr 05 min 01 sec)
Heartbeat CPU 0 instructions: 350000000 cycles: 129998267 heartbeat IPC: 1.139 cumulative IPC: 2.554 (Simulation time: 03 hr 14 min 15 sec)
Heartbeat CPU 0 instructions: 360000004 cycles: 138595562 heartbeat IPC: 1.163 cumulative IPC: 2.459 (Simulation time: 03 hr 23 min 13 sec)
Heartbeat CPU 0 instructions: 370000000 cycles: 141587807 heartbeat IPC: 3.342 cumulative IPC: 2.48 (Simulation time: 03 hr 28 min 17 sec)
Heartbeat CPU 0 instructions: 380000003 cycles: 144537754 heartbeat IPC: 3.39 cumulative IPC: 2.5 (Simulation time: 03 hr 33 min 19 sec)
Heartbeat CPU 0 instructions: 390000002 cycles: 147533490 heartbeat IPC: 3.338 cumulative IPC: 2.519 (Simulation time: 03 hr 38 min 23 sec)
Heartbeat CPU 0 instructions: 400000004 cycles: 150450726 heartbeat IPC: 3.428 cumulative IPC: 2.538 (Simulation time: 03 hr 43 min 20 sec)
Heartbeat CPU 0 instructions: 410000002 cycles: 153444323 heartbeat IPC: 3.34 cumulative IPC: 2.555 (Simulation time: 03 hr 48 min 23 sec)
Heartbeat CPU 0 instructions: 420000003 cycles: 156694785 heartbeat IPC: 3.076 cumulative IPC: 2.567 (Simulation time: 03 hr 53 min 37 sec)
Heartbeat CPU 0 instructions: 430000001 cycles: 159757082 heartbeat IPC: 3.266 cumulative IPC: 2.581 (Simulation time: 03 hr 58 min 44 sec)
Heartbeat CPU 0 instructions: 440000004 cycles: 162965540 heartbeat IPC: 3.117 cumulative IPC: 2.593 (Simulation time: 04 hr 04 min 08 sec)
Heartbeat CPU 0 instructions: 450000002 cycles: 165928455 heartbeat IPC: 3.375 cumulative IPC: 2.608 (Simulation time: 04 hr 09 min 07 sec)
Heartbeat CPU 0 instructions: 460000000 cycles: 168913523 heartbeat IPC: 3.35 cumulative IPC: 2.622 (Simulation time: 04 hr 14 min 07 sec)
Heartbeat CPU 0 instructions: 470000001 cycles: 171802190 heartbeat IPC: 3.462 cumulative IPC: 2.637 (Simulation time: 04 hr 19 min 04 sec)
Heartbeat CPU 0 instructions: 480000003 cycles: 174939551 heartbeat IPC: 3.187 cumulative IPC: 2.648 (Simulation time: 04 hr 24 min 11 sec)
Heartbeat CPU 0 instructions: 490000004 cycles: 177791912 heartbeat IPC: 3.506 cumulative IPC: 2.663 (Simulation time: 04 hr 29 min 06 sec)
Heartbeat CPU 0 instructions: 500000004 cycles: 180798855 heartbeat IPC: 3.326 cumulative IPC: 2.674 (Simulation time: 04 hr 34 min 07 sec)
Heartbeat CPU 0 instructions: 510000003 cycles: 183937022 heartbeat IPC: 3.187 cumulative IPC: 2.684 (Simulation time: 04 hr 39 min 29 sec)
Heartbeat CPU 0 instructions: 520000001 cycles: 186877783 heartbeat IPC: 3.4 cumulative IPC: 2.696 (Simulation time: 04 hr 44 min 37 sec)
Heartbeat CPU 0 instructions: 530000001 cycles: 189928214 heartbeat IPC: 3.278 cumulative IPC: 2.706 (Simulation time: 04 hr 49 min 40 sec)
Heartbeat CPU 0 instructions: 540000000 cycles: 192926510 heartbeat IPC: 3.335 cumulative IPC: 2.716 (Simulation time: 04 hr 54 min 45 sec)
Heartbeat CPU 0 instructions: 550000001 cycles: 195937857 heartbeat IPC: 3.321 cumulative IPC: 2.726 (Simulation time: 04 hr 59 min 47 sec)
Heartbeat CPU 0 instructions: 560000000 cycles: 199141317 heartbeat IPC: 3.122 cumulative IPC: 2.733 (Simulation time: 05 hr 05 min 01 sec)
Heartbeat CPU 0 instructions: 570000004 cycles: 204421411 heartbeat IPC: 1.894 cumulative IPC: 2.71 (Simulation time: 05 hr 11 min 42 sec)
Heartbeat CPU 0 instructions: 580000003 cycles: 212756729 heartbeat IPC: 1.2 cumulative IPC: 2.647 (Simulation time: 05 hr 20 min 31 sec)
Heartbeat CPU 0 instructions: 590000002 cycles: 224217862 heartbeat IPC: 0.8725 cumulative IPC: 2.551 (Simulation time: 05 hr 31 min 43 sec)
Heartbeat CPU 0 instructions: 600000004 cycles: 227324753 heartbeat IPC: 3.219 cumulative IPC: 2.561 (Simulation time: 05 hr 36 min 47 sec)
Heartbeat CPU 0 instructions: 610000002 cycles: 230322911 heartbeat IPC: 3.335 cumulative IPC: 2.571 (Simulation time: 05 hr 41 min 44 sec)
Heartbeat CPU 0 instructions: 620000001 cycles: 233109913 heartbeat IPC: 3.588 cumulative IPC: 2.584 (Simulation time: 05 hr 46 min 41 sec)
Heartbeat CPU 0 instructions: 630000002 cycles: 236102306 heartbeat IPC: 3.342 cumulative IPC: 2.594 (Simulation time: 05 hr 51 min 46 sec)
Heartbeat CPU 0 instructions: 640000004 cycles: 239063179 heartbeat IPC: 3.377 cumulative IPC: 2.605 (Simulation time: 05 hr 56 min 43 sec)
Heartbeat CPU 0 instructions: 650000000 cycles: 241816741 heartbeat IPC: 3.632 cumulative IPC: 2.617 (Simulation time: 06 hr 01 min 34 sec)
Simulation finished CPU 0 instructions: 600000001 cycles: 229279656 cumulative IPC: 2.617 (Simulation time: 06 hr 01 min 34 sec)
Simulation complete CPU 0 instructions: 600000001 cycles: 229279656 cumulative IPC: 2.617 (Simulation time: 06 hr 01 min 34 sec)

ChampSim completed all CPUs

=== Simulation ===
CPU 0 runs traces/400.perlbench-41B.champsimtrace.xz
Region of Interest Statistics

CPU 0 cumulative IPC: 2.617 instructions: 600000001 cycles: 229279656
CPU 0 Branch Prediction Accuracy: 99.19% MPKI: 1.684 Average ROB Occupancy at Mispredict: 102.1
Branch type MPKI
BRANCH_DIRECT_JUMP: 0.0123
BRANCH_INDIRECT: 0.323
BRANCH_CONDITIONAL: 1.14
BRANCH_DIRECT_CALL: 0.0043
BRANCH_INDIRECT_CALL: 0.2
BRANCH_RETURN: 0.00828

LLC TOTAL        ACCESS:     674905 HIT:     256238 MISS:     418667
LLC LOAD         ACCESS:     308359 HIT:     135820 MISS:     172539
LLC RFO          ACCESS:      25069 HIT:       7422 MISS:      17647
LLC PREFETCH     ACCESS:     262213 HIT:      86962 MISS:     175251
LLC WRITE        ACCESS:      63669 HIT:      24899 MISS:      38770
LLC TRANSLATION  ACCESS:      15595 HIT:       1135 MISS:      14460
LLC PREFETCH REQUESTED:     262218 ISSUED:     262213 USEFUL:      27568 USELESS:     130734
LLC AVERAGE MISS LATENCY: 765.8 cycles
cpu0_DTLB TOTAL        ACCESS:  129726314 HIT:  129023469 MISS:     702845
cpu0_DTLB LOAD         ACCESS:  129726314 HIT:  129023469 MISS:     702845
cpu0_DTLB RFO          ACCESS:          0 HIT:          0 MISS:          0
cpu0_DTLB PREFETCH     ACCESS:          0 HIT:          0 MISS:          0
cpu0_DTLB WRITE        ACCESS:          0 HIT:          0 MISS:          0
cpu0_DTLB TRANSLATION  ACCESS:          0 HIT:          0 MISS:          0
cpu0_DTLB PREFETCH REQUESTED:          0 ISSUED:          0 USEFUL:          0 USELESS:          0
cpu0_DTLB AVERAGE MISS LATENCY: 21.73 cycles
cpu0_ITLB TOTAL        ACCESS:    4876186 HIT:    4813506 MISS:      62680
cpu0_ITLB LOAD         ACCESS:    4876186 HIT:    4813506 MISS:      62680
cpu0_ITLB RFO          ACCESS:          0 HIT:          0 MISS:          0
cpu0_ITLB PREFETCH     ACCESS:          0 HIT:          0 MISS:          0
cpu0_ITLB WRITE        ACCESS:          0 HIT:          0 MISS:          0
cpu0_ITLB TRANSLATION  ACCESS:          0 HIT:          0 MISS:          0
cpu0_ITLB PREFETCH REQUESTED:          0 ISSUED:          0 USEFUL:          0 USELESS:          0
cpu0_ITLB AVERAGE MISS LATENCY: 7.533 cycles
cpu0_L1D TOTAL        ACCESS:  174339138 HIT:  172975626 MISS:    1363512
cpu0_L1D LOAD         ACCESS:   91315118 HIT:   90273367 MISS:    1041751
cpu0_L1D RFO          ACCESS:          0 HIT:          0 MISS:          0
cpu0_L1D PREFETCH     ACCESS:          0 HIT:          0 MISS:          0
cpu0_L1D WRITE        ACCESS:   82999555 HIT:   82700654 MISS:     298901
cpu0_L1D TRANSLATION  ACCESS:      24465 HIT:       1605 MISS:      22860
cpu0_L1D PREFETCH REQUESTED:          0 ISSUED:          0 USEFUL:          0 USELESS:          0
cpu0_L1D AVERAGE MISS LATENCY: 118.7 cycles
cpu0_L1I TOTAL        ACCESS:    5654446 HIT:    4848433 MISS:     806013
cpu0_L1I LOAD         ACCESS:    5654446 HIT:    4848433 MISS:     806013
cpu0_L1I RFO          ACCESS:          0 HIT:          0 MISS:          0
cpu0_L1I PREFETCH     ACCESS:          0 HIT:          0 MISS:          0
cpu0_L1I WRITE        ACCESS:          0 HIT:          0 MISS:          0
cpu0_L1I TRANSLATION  ACCESS:          0 HIT:          0 MISS:          0
cpu0_L1I PREFETCH REQUESTED:          0 ISSUED:          0 USEFUL:          0 USELESS:          0
cpu0_L1I AVERAGE MISS LATENCY: 12.87 cycles
cpu0_L2C TOTAL        ACCESS:    1381595 HIT:    1031756 MISS:     349839
cpu0_L2C LOAD         ACCESS:    1124037 HIT:     815678 MISS:     308359
cpu0_L2C RFO          ACCESS:      64480 HIT:      39411 MISS:      25069
cpu0_L2C PREFETCH     ACCESS:          0 HIT:          0 MISS:          0
cpu0_L2C WRITE        ACCESS:     170301 HIT:     169485 MISS:        816
cpu0_L2C TRANSLATION  ACCESS:      22777 HIT:       7182 MISS:      15595
cpu0_L2C PREFETCH REQUESTED:          0 ISSUED:          0 USEFUL:          0 USELESS:          0
cpu0_L2C AVERAGE MISS LATENCY: 483.9 cycles
cpu0_STLB TOTAL        ACCESS:     508653 HIT:     485865 MISS:      22788
cpu0_STLB LOAD         ACCESS:     508653 HIT:     485865 MISS:      22788
cpu0_STLB RFO          ACCESS:          0 HIT:          0 MISS:          0
cpu0_STLB PREFETCH     ACCESS:          0 HIT:          0 MISS:          0
cpu0_STLB WRITE        ACCESS:          0 HIT:          0 MISS:          0
cpu0_STLB TRANSLATION  ACCESS:          0 HIT:          0 MISS:          0
cpu0_STLB PREFETCH REQUESTED:          0 ISSUED:          0 USEFUL:          0 USELESS:          0
cpu0_STLB AVERAGE MISS LATENCY: 583.3 cycles

DRAM Statistics

Channel 0 RQ ROW_BUFFER_HIT:     115761
  ROW_BUFFER_MISS:     255857
 AVG DBUS CONGESTED CYCLE: 3.904
WQ ROW_BUFFER_HIT: Channel 0 
  ROW_BUFFER_MISS:       4825
  FULL:      35483
