WARNING: physical memory size is smaller than virtual memory size.

*** ChampSim Multicore Out-of-Order Simulator ***
Warmup Instructions: 50000000
Simulation Instructions: 600000000
Number of CPUs: 1
Page size: 4096

Off-chip DRAM Size: 4 GiB Channels: 1 Width: 64-bit Data Race: 3200 MT/s
Heartbeat CPU 0 instructions: 10000001 cycles: 2500318 heartbeat IPC: 3.999 cumulative IPC: 3.999 (Simulation time: 00 hr 00 min 37 sec)
Heartbeat CPU 0 instructions: 20000002 cycles: 5037077 heartbeat IPC: 3.942 cumulative IPC: 3.971 (Simulation time: 00 hr 01 min 14 sec)
Heartbeat CPU 0 instructions: 30000002 cycles: 7537077 heartbeat IPC: 4 cumulative IPC: 3.98 (Simulation time: 00 hr 01 min 45 sec)
Heartbeat CPU 0 instructions: 40000002 cycles: 10037077 heartbeat IPC: 4 cumulative IPC: 3.985 (Simulation time: 00 hr 02 min 16 sec)
Heartbeat CPU 0 instructions: 50000002 cycles: 12537077 heartbeat IPC: 4 cumulative IPC: 3.988 (Simulation time: 00 hr 02 min 46 sec)
Warmup finished CPU 0 instructions: 50000002 cycles: 12537078 cumulative IPC: 3.988 (Simulation time: 00 hr 02 min 46 sec)
Warmup complete CPU 0 instructions: 50000002 cycles: 12537078 cumulative IPC: 3.988 (Simulation time: 00 hr 02 min 46 sec)
Heartbeat CPU 0 instructions: 60000000 cycles: 17715488 heartbeat IPC: 1.931 cumulative IPC: 1.931 (Simulation time: 00 hr 03 min 31 sec)
Heartbeat CPU 0 instructions: 70000002 cycles: 22618268 heartbeat IPC: 2.04 cumulative IPC: 1.984 (Simulation time: 00 hr 04 min 15 sec)
Heartbeat CPU 0 instructions: 80000001 cycles: 27990719 heartbeat IPC: 1.861 cumulative IPC: 1.941 (Simulation time: 00 hr 05 min 01 sec)
Heartbeat CPU 0 instructions: 90000001 cycles: 32874953 heartbeat IPC: 2.047 cumulative IPC: 1.967 (Simulation time: 00 hr 05 min 43 sec)
Heartbeat CPU 0 instructions: 100000000 cycles: 37991844 heartbeat IPC: 1.954 cumulative IPC: 1.964 (Simulation time: 00 hr 06 min 28 sec)
Heartbeat CPU 0 instructions: 110000000 cycles: 42889281 heartbeat IPC: 2.042 cumulative IPC: 1.977 (Simulation time: 00 hr 07 min 13 sec)
Heartbeat CPU 0 instructions: 120000001 cycles: 48091633 heartbeat IPC: 1.922 cumulative IPC: 1.969 (Simulation time: 00 hr 07 min 58 sec)
Heartbeat CPU 0 instructions: 130000001 cycles: 53255698 heartbeat IPC: 1.936 cumulative IPC: 1.965 (Simulation time: 00 hr 08 min 44 sec)
Heartbeat CPU 0 instructions: 140000001 cycles: 58579739 heartbeat IPC: 1.878 cumulative IPC: 1.955 (Simulation time: 00 hr 09 min 29 sec)
Heartbeat CPU 0 instructions: 150000001 cycles: 63902336 heartbeat IPC: 1.879 cumulative IPC: 1.947 (Simulation time: 00 hr 10 min 15 sec)
Heartbeat CPU 0 instructions: 160000004 cycles: 69120434 heartbeat IPC: 1.916 cumulative IPC: 1.944 (Simulation time: 00 hr 11 min 00 sec)
Heartbeat CPU 0 instructions: 170000004 cycles: 79201024 heartbeat IPC: 0.992 cumulative IPC: 1.8 (Simulation time: 00 hr 12 min 11 sec)
Heartbeat CPU 0 instructions: 180000004 cycles: 90225725 heartbeat IPC: 0.9071 cumulative IPC: 1.673 (Simulation time: 00 hr 13 min 27 sec)
Heartbeat CPU 0 instructions: 190000001 cycles: 101195763 heartbeat IPC: 0.9116 cumulative IPC: 1.579 (Simulation time: 00 hr 14 min 42 sec)
Heartbeat CPU 0 instructions: 200000003 cycles: 105969742 heartbeat IPC: 2.095 cumulative IPC: 1.605 (Simulation time: 00 hr 15 min 26 sec)
Heartbeat CPU 0 instructions: 210000001 cycles: 110886434 heartbeat IPC: 2.034 cumulative IPC: 1.627 (Simulation time: 00 hr 16 min 10 sec)
Heartbeat CPU 0 instructions: 220000000 cycles: 115716904 heartbeat IPC: 2.07 cumulative IPC: 1.648 (Simulation time: 00 hr 16 min 54 sec)
Heartbeat CPU 0 instructions: 230000002 cycles: 121029226 heartbeat IPC: 1.882 cumulative IPC: 1.659 (Simulation time: 00 hr 17 min 43 sec)
Heartbeat CPU 0 instructions: 240000000 cycles: 125867668 heartbeat IPC: 2.067 cumulative IPC: 1.677 (Simulation time: 00 hr 19 min 26 sec)
Heartbeat CPU 0 instructions: 250000000 cycles: 131017135 heartbeat IPC: 1.942 cumulative IPC: 1.688 (Simulation time: 00 hr 20 min 52 sec)
Heartbeat CPU 0 instructions: 260000000 cycles: 136042094 heartbeat IPC: 1.99 cumulative IPC: 1.7 (Simulation time: 00 hr 22 min 16 sec)
Heartbeat CPU 0 instructions: 270000002 cycles: 140924729 heartbeat IPC: 2.048 cumulative IPC: 1.714 (Simulation time: 00 hr 23 min 41 sec)
Heartbeat CPU 0 instructions: 280000002 cycles: 145832872 heartbeat IPC: 2.037 cumulative IPC: 1.725 (Simulation time: 00 hr 25 min 05 sec)
Heartbeat CPU 0 instructions: 290000001 cycles: 151204016 heartbeat IPC: 1.862 cumulative IPC: 1.731 (Simulation time: 00 hr 26 min 21 sec)
Heartbeat CPU 0 instructions: 300000003 cycles: 156261669 heartbeat IPC: 1.977 cumulative IPC: 1.739 (Simulation time: 00 hr 27 min 07 sec)
Heartbeat CPU 0 instructions: 310000001 cycles: 161551602 heartbeat IPC: 1.89 cumulative IPC: 1.745 (Simulation time: 00 hr 27 min 52 sec)
Heartbeat CPU 0 instructions: 320000003 cycles: 166756435 heartbeat IPC: 1.921 cumulative IPC: 1.751 (Simulation time: 00 hr 28 min 38 sec)
Heartbeat CPU 0 instructions: 330000003 cycles: 172044074 heartbeat IPC: 1.891 cumulative IPC: 1.755 (Simulation time: 00 hr 29 min 23 sec)
Heartbeat CPU 0 instructions: 340000000 cycles: 181725888 heartbeat IPC: 1.033 cumulative IPC: 1.714 (Simulation time: 00 hr 30 min 32 sec)
Heartbeat CPU 0 instructions: 350000000 cycles: 192618968 heartbeat IPC: 0.918 cumulative IPC: 1.666 (Simulation time: 00 hr 31 min 48 sec)
Heartbeat CPU 0 instructions: 360000004 cycles: 203563236 heartbeat IPC: 0.9137 cumulative IPC: 1.623 (Simulation time: 00 hr 33 min 04 sec)
Heartbeat CPU 0 instructions: 370000000 cycles: 207980617 heartbeat IPC: 2.264 cumulative IPC: 1.637 (Simulation time: 00 hr 33 min 46 sec)
Heartbeat CPU 0 instructions: 380000001 cycles: 212906533 heartbeat IPC: 2.03 cumulative IPC: 1.647 (Simulation time: 00 hr 34 min 30 sec)
Heartbeat CPU 0 instructions: 390000002 cycles: 217729244 heartbeat IPC: 2.074 cumulative IPC: 1.657 (Simulation time: 00 hr 35 min 14 sec)
Heartbeat CPU 0 instructions: 400000004 cycles: 222662292 heartbeat IPC: 2.027 cumulative IPC: 1.666 (Simulation time: 00 hr 35 min 58 sec)
Heartbeat CPU 0 instructions: 410000000 cycles: 227386563 heartbeat IPC: 2.117 cumulative IPC: 1.676 (Simulation time: 00 hr 36 min 42 sec)
Heartbeat CPU 0 instructions: 420000000 cycles: 232612551 heartbeat IPC: 1.914 cumulative IPC: 1.681 (Simulation time: 00 hr 37 min 27 sec)
Heartbeat CPU 0 instructions: 430000001 cycles: 237079985 heartbeat IPC: 2.238 cumulative IPC: 1.692 (Simulation time: 00 hr 38 min 10 sec)
Heartbeat CPU 0 instructions: 440000000 cycles: 242435607 heartbeat IPC: 1.867 cumulative IPC: 1.696 (Simulation time: 00 hr 38 min 56 sec)
Heartbeat CPU 0 instructions: 450000002 cycles: 247105712 heartbeat IPC: 2.141 cumulative IPC: 1.705 (Simulation time: 00 hr 39 min 40 sec)
Heartbeat CPU 0 instructions: 460000000 cycles: 251901139 heartbeat IPC: 2.085 cumulative IPC: 1.713 (Simulation time: 00 hr 40 min 23 sec)
Heartbeat CPU 0 instructions: 470000000 cycles: 256883225 heartbeat IPC: 2.007 cumulative IPC: 1.719 (Simulation time: 00 hr 41 min 07 sec)
Heartbeat CPU 0 instructions: 480000003 cycles: 261724338 heartbeat IPC: 2.066 cumulative IPC: 1.726 (Simulation time: 00 hr 41 min 51 sec)
Heartbeat CPU 0 instructions: 490000000 cycles: 266337948 heartbeat IPC: 2.167 cumulative IPC: 1.734 (Simulation time: 00 hr 42 min 34 sec)
Heartbeat CPU 0 instructions: 500000000 cycles: 271365723 heartbeat IPC: 1.989 cumulative IPC: 1.739 (Simulation time: 00 hr 43 min 18 sec)
Heartbeat CPU 0 instructions: 510000003 cycles: 277059406 heartbeat IPC: 1.756 cumulative IPC: 1.739 (Simulation time: 00 hr 44 min 05 sec)
Heartbeat CPU 0 instructions: 520000001 cycles: 281753727 heartbeat IPC: 2.13 cumulative IPC: 1.746 (Simulation time: 00 hr 44 min 47 sec)
Heartbeat CPU 0 instructions: 530000002 cycles: 286907543 heartbeat IPC: 1.94 cumulative IPC: 1.749 (Simulation time: 00 hr 45 min 30 sec)
Heartbeat CPU 0 instructions: 540000000 cycles: 292020974 heartbeat IPC: 1.956 cumulative IPC: 1.753 (Simulation time: 00 hr 46 min 13 sec)
Heartbeat CPU 0 instructions: 550000001 cycles: 296827988 heartbeat IPC: 2.08 cumulative IPC: 1.759 (Simulation time: 00 hr 46 min 55 sec)
Heartbeat CPU 0 instructions: 560000000 cycles: 302111021 heartbeat IPC: 1.893 cumulative IPC: 1.761 (Simulation time: 00 hr 47 min 38 sec)
Heartbeat CPU 0 instructions: 570000004 cycles: 308984575 heartbeat IPC: 1.455 cumulative IPC: 1.754 (Simulation time: 00 hr 48 min 28 sec)
Heartbeat CPU 0 instructions: 580000003 cycles: 320421634 heartbeat IPC: 0.8744 cumulative IPC: 1.721 (Simulation time: 00 hr 49 min 38 sec)
Heartbeat CPU 0 instructions: 590000002 cycles: 333818849 heartbeat IPC: 0.7464 cumulative IPC: 1.681 (Simulation time: 00 hr 50 min 53 sec)
Heartbeat CPU 0 instructions: 600000000 cycles: 338426795 heartbeat IPC: 2.17 cumulative IPC: 1.688 (Simulation time: 00 hr 51 min 28 sec)
Heartbeat CPU 0 instructions: 610000002 cycles: 342921170 heartbeat IPC: 2.225 cumulative IPC: 1.695 (Simulation time: 00 hr 52 min 01 sec)
Heartbeat CPU 0 instructions: 620000000 cycles: 347728936 heartbeat IPC: 2.08 cumulative IPC: 1.701 (Simulation time: 00 hr 52 min 32 sec)
Heartbeat CPU 0 instructions: 630000002 cycles: 352815349 heartbeat IPC: 1.966 cumulative IPC: 1.704 (Simulation time: 00 hr 52 min 58 sec)
Heartbeat CPU 0 instructions: 640000001 cycles: 357668905 heartbeat IPC: 2.06 cumulative IPC: 1.709 (Simulation time: 00 hr 53 min 20 sec)
Heartbeat CPU 0 instructions: 650000000 cycles: 362226623 heartbeat IPC: 2.194 cumulative IPC: 1.716 (Simulation time: 00 hr 53 min 40 sec)
Simulation finished CPU 0 instructions: 600000001 cycles: 349689547 cumulative IPC: 1.716 (Simulation time: 00 hr 53 min 40 sec)
Simulation complete CPU 0 instructions: 600000001 cycles: 349689547 cumulative IPC: 1.716 (Simulation time: 00 hr 53 min 40 sec)

ChampSim completed all CPUs

=== Simulation ===
CPU 0 runs traces/400.perlbench-41B.champsimtrace.xz
Region of Interest Statistics

CPU 0 cumulative IPC: 1.716 instructions: 600000001 cycles: 349689547
CPU 0 Branch Prediction Accuracy: 93.95% MPKI: 12.5 Average ROB Occupancy at Mispredict: 29.57
Branch type MPKI
BRANCH_DIRECT_JUMP: 0.0123
BRANCH_INDIRECT: 0.323
BRANCH_CONDITIONAL: 12
BRANCH_DIRECT_CALL: 0.0043
BRANCH_INDIRECT_CALL: 0.2
BRANCH_RETURN: 0.00828

LLC TOTAL        ACCESS:     415058 HIT:     146533 MISS:     268525
LLC LOAD         ACCESS:     309603 HIT:      83812 MISS:     225791
LLC RFO          ACCESS:      25073 HIT:      10954 MISS:      14119
LLC PREFETCH     ACCESS:          0 HIT:          0 MISS:          0
LLC WRITE        ACCESS:      64591 HIT:      45493 MISS:      19098
LLC TRANSLATION  ACCESS:      15791 HIT:       6274 MISS:       9517
LLC PREFETCH REQUESTED:          0 ISSUED:          0 USEFUL:          0 USELESS:          0
LLC AVERAGE MISS LATENCY: 523.4 cycles
cpu0_DTLB TOTAL        ACCESS:  153663698 HIT:  152986369 MISS:     677329
cpu0_DTLB LOAD         ACCESS:  153663698 HIT:  152986369 MISS:     677329
cpu0_DTLB RFO          ACCESS:          0 HIT:          0 MISS:          0
cpu0_DTLB PREFETCH     ACCESS:          0 HIT:          0 MISS:          0
cpu0_DTLB WRITE        ACCESS:          0 HIT:          0 MISS:          0
cpu0_DTLB TRANSLATION  ACCESS:          0 HIT:          0 MISS:          0
cpu0_DTLB PREFETCH REQUESTED:          0 ISSUED:          0 USEFUL:          0 USELESS:          0
cpu0_DTLB AVERAGE MISS LATENCY: 15.1 cycles
cpu0_ITLB TOTAL        ACCESS:    4835005 HIT:    4776957 MISS:      58048
cpu0_ITLB LOAD         ACCESS:    4835005 HIT:    4776957 MISS:      58048
cpu0_ITLB RFO          ACCESS:          0 HIT:          0 MISS:          0
cpu0_ITLB PREFETCH     ACCESS:          0 HIT:          0 MISS:          0
cpu0_ITLB WRITE        ACCESS:          0 HIT:          0 MISS:          0
cpu0_ITLB TRANSLATION  ACCESS:          0 HIT:          0 MISS:          0
cpu0_ITLB PREFETCH REQUESTED:          0 ISSUED:          0 USEFUL:          0 USELESS:          0
cpu0_ITLB AVERAGE MISS LATENCY: 6.976 cycles
cpu0_L1D TOTAL        ACCESS:  200287906 HIT:  198946487 MISS:    1341419
cpu0_L1D LOAD         ACCESS:  117044261 HIT:  116011839 MISS:    1032422
cpu0_L1D RFO          ACCESS:          0 HIT:          0 MISS:          0
cpu0_L1D PREFETCH     ACCESS:          0 HIT:          0 MISS:          0
cpu0_L1D WRITE        ACCESS:   83219180 HIT:   82933075 MISS:     286105
cpu0_L1D TRANSLATION  ACCESS:      24465 HIT:       1573 MISS:      22892
cpu0_L1D PREFETCH REQUESTED:          0 ISSUED:          0 USEFUL:          0 USELESS:          0
cpu0_L1D AVERAGE MISS LATENCY: 109.5 cycles
cpu0_L1I TOTAL        ACCESS:    5577472 HIT:    4815408 MISS:     762064
cpu0_L1I LOAD         ACCESS:    5577472 HIT:    4815408 MISS:     762064
cpu0_L1I RFO          ACCESS:          0 HIT:          0 MISS:          0
cpu0_L1I PREFETCH     ACCESS:          0 HIT:          0 MISS:          0
cpu0_L1I WRITE        ACCESS:          0 HIT:          0 MISS:          0
cpu0_L1I TRANSLATION  ACCESS:          0 HIT:          0 MISS:          0
cpu0_L1I PREFETCH REQUESTED:          0 ISSUED:          0 USEFUL:          0 USELESS:          0
cpu0_L1I AVERAGE MISS LATENCY: 11.04 cycles
cpu0_L2C TOTAL        ACCESS:    1382575 HIT:    1031239 MISS:     351336
cpu0_L2C LOAD         ACCESS:    1125693 HIT:     816090 MISS:     309603
cpu0_L2C RFO          ACCESS:      63899 HIT:      38826 MISS:      25073
cpu0_L2C PREFETCH     ACCESS:          0 HIT:          0 MISS:          0
cpu0_L2C WRITE        ACCESS:     170173 HIT:     169304 MISS:        869
cpu0_L2C TRANSLATION  ACCESS:      22810 HIT:       7019 MISS:      15791
cpu0_L2C PREFETCH REQUESTED:          0 ISSUED:          0 USEFUL:          0 USELESS:          0
cpu0_L2C AVERAGE MISS LATENCY: 420.7 cycles
cpu0_STLB TOTAL        ACCESS:     505157 HIT:     482367 MISS:      22790
cpu0_STLB LOAD         ACCESS:     505157 HIT:     482367 MISS:      22790
cpu0_STLB RFO          ACCESS:          0 HIT:          0 MISS:          0
cpu0_STLB PREFETCH     ACCESS:          0 HIT:          0 MISS:          0
cpu0_STLB WRITE        ACCESS:          0 HIT:          0 MISS:          0
cpu0_STLB TRANSLATION  ACCESS:          0 HIT:          0 MISS:          0
cpu0_STLB PREFETCH REQUESTED:          0 ISSUED:          0 USEFUL:          0 USELESS:          0
cpu0_STLB AVERAGE MISS LATENCY: 326.6 cycles

DRAM Statistics

Channel 0 RQ ROW_BUFFER_HIT:      39226
  ROW_BUFFER_MISS:     210144
 AVG DBUS CONGESTED CYCLE: 3.804
WQ ROW_BUFFER_HIT: Channel 0 
  ROW_BUFFER_MISS:       7861
  FULL:      30736
Final OPTGen Hits: 2808
Final OPTGen Access: 6667
Final OPTGEN Hit Rate: 42.1179
