WARNING: physical memory size is smaller than virtual memory size.

*** ChampSim Multicore Out-of-Order Simulator ***
Warmup Instructions: 50000000
Simulation Instructions: 600000000
Number of CPUs: 1
Page size: 4096

Off-chip DRAM Size: 4 GiB Channels: 1 Width: 64-bit Data Race: 3200 MT/s
Heartbeat CPU 0 instructions: 10000001 cycles: 2500318 heartbeat IPC: 3.999 cumulative IPC: 3.999 (Simulation time: 00 hr 03 min 33 sec)
Heartbeat CPU 0 instructions: 20000002 cycles: 5037077 heartbeat IPC: 3.942 cumulative IPC: 3.971 (Simulation time: 00 hr 07 min 11 sec)
Heartbeat CPU 0 instructions: 30000002 cycles: 7537077 heartbeat IPC: 4 cumulative IPC: 3.98 (Simulation time: 00 hr 10 min 21 sec)
Heartbeat CPU 0 instructions: 40000002 cycles: 10037077 heartbeat IPC: 4 cumulative IPC: 3.985 (Simulation time: 00 hr 13 min 25 sec)
Heartbeat CPU 0 instructions: 50000002 cycles: 12537077 heartbeat IPC: 4 cumulative IPC: 3.988 (Simulation time: 00 hr 16 min 18 sec)
Warmup finished CPU 0 instructions: 50000002 cycles: 12537078 cumulative IPC: 3.988 (Simulation time: 00 hr 16 min 18 sec)
Warmup complete CPU 0 instructions: 50000002 cycles: 12537078 cumulative IPC: 3.988 (Simulation time: 00 hr 16 min 18 sec)
Heartbeat CPU 0 instructions: 60000000 cycles: 17704864 heartbeat IPC: 1.935 cumulative IPC: 1.935 (Simulation time: 00 hr 20 min 32 sec)
Heartbeat CPU 0 instructions: 70000002 cycles: 22598301 heartbeat IPC: 2.044 cumulative IPC: 1.988 (Simulation time: 00 hr 24 min 38 sec)
Heartbeat CPU 0 instructions: 80000001 cycles: 27958172 heartbeat IPC: 1.866 cumulative IPC: 1.945 (Simulation time: 00 hr 28 min 42 sec)
Heartbeat CPU 0 instructions: 90000001 cycles: 32836538 heartbeat IPC: 2.05 cumulative IPC: 1.97 (Simulation time: 00 hr 32 min 25 sec)
Heartbeat CPU 0 instructions: 100000000 cycles: 37954306 heartbeat IPC: 1.954 cumulative IPC: 1.967 (Simulation time: 00 hr 36 min 04 sec)
Heartbeat CPU 0 instructions: 110000000 cycles: 42847616 heartbeat IPC: 2.044 cumulative IPC: 1.98 (Simulation time: 00 hr 39 min 32 sec)
Heartbeat CPU 0 instructions: 120000001 cycles: 48050475 heartbeat IPC: 1.922 cumulative IPC: 1.971 (Simulation time: 00 hr 42 min 55 sec)
Heartbeat CPU 0 instructions: 130000001 cycles: 53207371 heartbeat IPC: 1.939 cumulative IPC: 1.967 (Simulation time: 00 hr 46 min 20 sec)
Heartbeat CPU 0 instructions: 140000001 cycles: 58521142 heartbeat IPC: 1.882 cumulative IPC: 1.957 (Simulation time: 00 hr 49 min 50 sec)
Heartbeat CPU 0 instructions: 150000001 cycles: 63836630 heartbeat IPC: 1.881 cumulative IPC: 1.949 (Simulation time: 00 hr 53 min 17 sec)
Heartbeat CPU 0 instructions: 160000004 cycles: 69043351 heartbeat IPC: 1.921 cumulative IPC: 1.947 (Simulation time: 00 hr 56 min 46 sec)
Heartbeat CPU 0 instructions: 170000000 cycles: 78201990 heartbeat IPC: 1.092 cumulative IPC: 1.827 (Simulation time: 01 hr 02 min 02 sec)
Heartbeat CPU 0 instructions: 180000004 cycles: 87296331 heartbeat IPC: 1.1 cumulative IPC: 1.739 (Simulation time: 01 hr 07 min 16 sec)
Heartbeat CPU 0 instructions: 190000001 cycles: 97477379 heartbeat IPC: 0.9822 cumulative IPC: 1.648 (Simulation time: 01 hr 12 min 51 sec)
Heartbeat CPU 0 instructions: 200000003 cycles: 102231240 heartbeat IPC: 2.104 cumulative IPC: 1.672 (Simulation time: 01 hr 16 min 09 sec)
Heartbeat CPU 0 instructions: 210000001 cycles: 107135669 heartbeat IPC: 2.039 cumulative IPC: 1.691 (Simulation time: 01 hr 19 min 34 sec)
Heartbeat CPU 0 instructions: 220000000 cycles: 111956233 heartbeat IPC: 2.074 cumulative IPC: 1.71 (Simulation time: 01 hr 22 min 45 sec)
Heartbeat CPU 0 instructions: 230000002 cycles: 117244358 heartbeat IPC: 1.891 cumulative IPC: 1.719 (Simulation time: 01 hr 26 min 05 sec)
Heartbeat CPU 0 instructions: 240000000 cycles: 122072411 heartbeat IPC: 2.071 cumulative IPC: 1.735 (Simulation time: 01 hr 29 min 21 sec)
Heartbeat CPU 0 instructions: 250000000 cycles: 127209616 heartbeat IPC: 1.947 cumulative IPC: 1.744 (Simulation time: 01 hr 32 min 46 sec)
Heartbeat CPU 0 instructions: 260000000 cycles: 132217281 heartbeat IPC: 1.997 cumulative IPC: 1.755 (Simulation time: 01 hr 36 min 03 sec)
Heartbeat CPU 0 instructions: 270000002 cycles: 137090551 heartbeat IPC: 2.052 cumulative IPC: 1.766 (Simulation time: 01 hr 39 min 18 sec)
Heartbeat CPU 0 instructions: 280000002 cycles: 141989751 heartbeat IPC: 2.041 cumulative IPC: 1.777 (Simulation time: 01 hr 42 min 43 sec)
Heartbeat CPU 0 instructions: 290000001 cycles: 147355405 heartbeat IPC: 1.864 cumulative IPC: 1.78 (Simulation time: 01 hr 46 min 14 sec)
Heartbeat CPU 0 instructions: 300000003 cycles: 152390215 heartbeat IPC: 1.986 cumulative IPC: 1.788 (Simulation time: 01 hr 49 min 36 sec)
Heartbeat CPU 0 instructions: 310000001 cycles: 157657004 heartbeat IPC: 1.899 cumulative IPC: 1.792 (Simulation time: 01 hr 52 min 59 sec)
Heartbeat CPU 0 instructions: 320000003 cycles: 162844234 heartbeat IPC: 1.928 cumulative IPC: 1.796 (Simulation time: 01 hr 56 min 20 sec)
Heartbeat CPU 0 instructions: 330000003 cycles: 168115075 heartbeat IPC: 1.897 cumulative IPC: 1.8 (Simulation time: 01 hr 59 min 43 sec)
Heartbeat CPU 0 instructions: 340000000 cycles: 177102041 heartbeat IPC: 1.113 cumulative IPC: 1.762 (Simulation time: 02 hr 04 min 40 sec)
Heartbeat CPU 0 instructions: 350000000 cycles: 186345475 heartbeat IPC: 1.082 cumulative IPC: 1.726 (Simulation time: 02 hr 09 min 50 sec)
Heartbeat CPU 0 instructions: 360000004 cycles: 196613342 heartbeat IPC: 0.9739 cumulative IPC: 1.684 (Simulation time: 02 hr 15 min 36 sec)
Heartbeat CPU 0 instructions: 370000000 cycles: 201010507 heartbeat IPC: 2.274 cumulative IPC: 1.698 (Simulation time: 02 hr 18 min 47 sec)
Heartbeat CPU 0 instructions: 380000001 cycles: 205924073 heartbeat IPC: 2.035 cumulative IPC: 1.706 (Simulation time: 02 hr 22 min 18 sec)
Heartbeat CPU 0 instructions: 390000002 cycles: 210739982 heartbeat IPC: 2.076 cumulative IPC: 1.715 (Simulation time: 02 hr 25 min 42 sec)
Heartbeat CPU 0 instructions: 400000004 cycles: 215667304 heartbeat IPC: 2.03 cumulative IPC: 1.723 (Simulation time: 02 hr 29 min 08 sec)
Heartbeat CPU 0 instructions: 410000000 cycles: 220394863 heartbeat IPC: 2.115 cumulative IPC: 1.732 (Simulation time: 02 hr 32 min 25 sec)
Heartbeat CPU 0 instructions: 420000000 cycles: 225504406 heartbeat IPC: 1.957 cumulative IPC: 1.737 (Simulation time: 02 hr 35 min 53 sec)
Heartbeat CPU 0 instructions: 430000001 cycles: 229965177 heartbeat IPC: 2.242 cumulative IPC: 1.748 (Simulation time: 02 hr 39 min 08 sec)
Heartbeat CPU 0 instructions: 440000000 cycles: 235314420 heartbeat IPC: 1.869 cumulative IPC: 1.751 (Simulation time: 02 hr 42 min 41 sec)
Heartbeat CPU 0 instructions: 450000002 cycles: 239968044 heartbeat IPC: 2.149 cumulative IPC: 1.759 (Simulation time: 02 hr 45 min 52 sec)
Heartbeat CPU 0 instructions: 460000000 cycles: 244755365 heartbeat IPC: 2.089 cumulative IPC: 1.766 (Simulation time: 02 hr 49 min 13 sec)
Heartbeat CPU 0 instructions: 470000000 cycles: 249726783 heartbeat IPC: 2.011 cumulative IPC: 1.771 (Simulation time: 02 hr 52 min 38 sec)
Heartbeat CPU 0 instructions: 480000003 cycles: 254509394 heartbeat IPC: 2.091 cumulative IPC: 1.777 (Simulation time: 02 hr 56 min 00 sec)
Heartbeat CPU 0 instructions: 490000000 cycles: 259113724 heartbeat IPC: 2.172 cumulative IPC: 1.784 (Simulation time: 02 hr 59 min 14 sec)
Heartbeat CPU 0 instructions: 500000000 cycles: 264136293 heartbeat IPC: 1.991 cumulative IPC: 1.789 (Simulation time: 03 hr 02 min 39 sec)
Heartbeat CPU 0 instructions: 510000003 cycles: 269759434 heartbeat IPC: 1.778 cumulative IPC: 1.788 (Simulation time: 03 hr 06 min 09 sec)
Heartbeat CPU 0 instructions: 520000001 cycles: 274436285 heartbeat IPC: 2.138 cumulative IPC: 1.795 (Simulation time: 03 hr 09 min 23 sec)
Heartbeat CPU 0 instructions: 530000002 cycles: 279560654 heartbeat IPC: 1.951 cumulative IPC: 1.798 (Simulation time: 03 hr 12 min 43 sec)
Heartbeat CPU 0 instructions: 540000000 cycles: 284661954 heartbeat IPC: 1.96 cumulative IPC: 1.801 (Simulation time: 03 hr 16 min 13 sec)
Heartbeat CPU 0 instructions: 550000001 cycles: 289458745 heartbeat IPC: 2.085 cumulative IPC: 1.806 (Simulation time: 03 hr 19 min 31 sec)
Heartbeat CPU 0 instructions: 560000000 cycles: 294667553 heartbeat IPC: 1.92 cumulative IPC: 1.808 (Simulation time: 03 hr 22 min 47 sec)
Heartbeat CPU 0 instructions: 570000004 cycles: 301402396 heartbeat IPC: 1.485 cumulative IPC: 1.8 (Simulation time: 03 hr 26 min 44 sec)
Heartbeat CPU 0 instructions: 580000003 cycles: 311476799 heartbeat IPC: 0.9926 cumulative IPC: 1.773 (Simulation time: 03 hr 32 min 02 sec)
Heartbeat CPU 0 instructions: 590000002 cycles: 323491009 heartbeat IPC: 0.8323 cumulative IPC: 1.737 (Simulation time: 03 hr 37 min 13 sec)
Heartbeat CPU 0 instructions: 600000000 cycles: 328039955 heartbeat IPC: 2.198 cumulative IPC: 1.743 (Simulation time: 03 hr 39 min 39 sec)
Heartbeat CPU 0 instructions: 610000002 cycles: 332513200 heartbeat IPC: 2.236 cumulative IPC: 1.75 (Simulation time: 03 hr 41 min 58 sec)
Heartbeat CPU 0 instructions: 620000000 cycles: 337315973 heartbeat IPC: 2.082 cumulative IPC: 1.755 (Simulation time: 03 hr 43 min 59 sec)
Heartbeat CPU 0 instructions: 630000002 cycles: 342388194 heartbeat IPC: 1.972 cumulative IPC: 1.758 (Simulation time: 03 hr 45 min 29 sec)
Heartbeat CPU 0 instructions: 640000001 cycles: 347236153 heartbeat IPC: 2.063 cumulative IPC: 1.763 (Simulation time: 03 hr 46 min 50 sec)
Heartbeat CPU 0 instructions: 650000000 cycles: 351785032 heartbeat IPC: 2.198 cumulative IPC: 1.769 (Simulation time: 03 hr 47 min 54 sec)
Simulation finished CPU 0 instructions: 600000001 cycles: 339247956 cumulative IPC: 1.769 (Simulation time: 03 hr 47 min 54 sec)
Simulation complete CPU 0 instructions: 600000001 cycles: 339247956 cumulative IPC: 1.769 (Simulation time: 03 hr 47 min 54 sec)

ChampSim completed all CPUs

=== Simulation ===
CPU 0 runs traces/400.perlbench-41B.champsimtrace.xz
Region of Interest Statistics

CPU 0 cumulative IPC: 1.769 instructions: 600000001 cycles: 339247956
CPU 0 Branch Prediction Accuracy: 93.95% MPKI: 12.5 Average ROB Occupancy at Mispredict: 29.47
Branch type MPKI
BRANCH_DIRECT_JUMP: 0.0123
BRANCH_INDIRECT: 0.323
BRANCH_CONDITIONAL: 12
BRANCH_DIRECT_CALL: 0.0043
BRANCH_INDIRECT_CALL: 0.2
BRANCH_RETURN: 0.00828

LLC TOTAL        ACCESS:     415106 HIT:     189635 MISS:     225471
LLC LOAD         ACCESS:     309497 HIT:     102394 MISS:     207103
LLC RFO          ACCESS:      25150 HIT:      20216 MISS:       4934
LLC PREFETCH     ACCESS:          0 HIT:          0 MISS:          0
LLC WRITE        ACCESS:      64741 HIT:      62080 MISS:       2661
LLC TRANSLATION  ACCESS:      15718 HIT:       4945 MISS:      10773
LLC PREFETCH REQUESTED:          0 ISSUED:          0 USEFUL:          0 USELESS:          0
LLC AVERAGE MISS LATENCY: 482.8 cycles
cpu0_DTLB TOTAL        ACCESS:  153681497 HIT:  153004004 MISS:     677493
cpu0_DTLB LOAD         ACCESS:  153681497 HIT:  153004004 MISS:     677493
cpu0_DTLB RFO          ACCESS:          0 HIT:          0 MISS:          0
cpu0_DTLB PREFETCH     ACCESS:          0 HIT:          0 MISS:          0
cpu0_DTLB WRITE        ACCESS:          0 HIT:          0 MISS:          0
cpu0_DTLB TRANSLATION  ACCESS:          0 HIT:          0 MISS:          0
cpu0_DTLB PREFETCH REQUESTED:          0 ISSUED:          0 USEFUL:          0 USELESS:          0
cpu0_DTLB AVERAGE MISS LATENCY: 14.97 cycles
cpu0_ITLB TOTAL        ACCESS:    4835071 HIT:    4777019 MISS:      58052
cpu0_ITLB LOAD         ACCESS:    4835071 HIT:    4777019 MISS:      58052
cpu0_ITLB RFO          ACCESS:          0 HIT:          0 MISS:          0
cpu0_ITLB PREFETCH     ACCESS:          0 HIT:          0 MISS:          0
cpu0_ITLB WRITE        ACCESS:          0 HIT:          0 MISS:          0
cpu0_ITLB TRANSLATION  ACCESS:          0 HIT:          0 MISS:          0
cpu0_ITLB PREFETCH REQUESTED:          0 ISSUED:          0 USEFUL:          0 USELESS:          0
cpu0_ITLB AVERAGE MISS LATENCY: 6.939 cycles
cpu0_L1D TOTAL        ACCESS:  200305384 HIT:  198980429 MISS:    1324955
cpu0_L1D LOAD         ACCESS:  117061321 HIT:  116032197 MISS:    1029124
cpu0_L1D RFO          ACCESS:          0 HIT:          0 MISS:          0
cpu0_L1D PREFETCH     ACCESS:          0 HIT:          0 MISS:          0
cpu0_L1D WRITE        ACCESS:   83219600 HIT:   82946660 MISS:     272940
cpu0_L1D TRANSLATION  ACCESS:      24463 HIT:       1572 MISS:      22891
cpu0_L1D PREFETCH REQUESTED:          0 ISSUED:          0 USEFUL:          0 USELESS:          0
cpu0_L1D AVERAGE MISS LATENCY: 88.39 cycles
cpu0_L1I TOTAL        ACCESS:    5577587 HIT:    4815424 MISS:     762163
cpu0_L1I LOAD         ACCESS:    5577587 HIT:    4815424 MISS:     762163
cpu0_L1I RFO          ACCESS:          0 HIT:          0 MISS:          0
cpu0_L1I PREFETCH     ACCESS:          0 HIT:          0 MISS:          0
cpu0_L1I WRITE        ACCESS:          0 HIT:          0 MISS:          0
cpu0_L1I TRANSLATION  ACCESS:          0 HIT:          0 MISS:          0
cpu0_L1I PREFETCH REQUESTED:          0 ISSUED:          0 USEFUL:          0 USELESS:          0
cpu0_L1I AVERAGE MISS LATENCY: 10.11 cycles
cpu0_L2C TOTAL        ACCESS:    1382665 HIT:    1031433 MISS:     351232
cpu0_L2C LOAD         ACCESS:    1125681 HIT:     816184 MISS:     309497
cpu0_L2C RFO          ACCESS:      63891 HIT:      38741 MISS:      25150
cpu0_L2C PREFETCH     ACCESS:          0 HIT:          0 MISS:          0
cpu0_L2C WRITE        ACCESS:     170286 HIT:     169419 MISS:        867
cpu0_L2C TRANSLATION  ACCESS:      22807 HIT:       7089 MISS:      15718
cpu0_L2C PREFETCH REQUESTED:          0 ISSUED:          0 USEFUL:          0 USELESS:          0
cpu0_L2C AVERAGE MISS LATENCY: 330.5 cycles
cpu0_STLB TOTAL        ACCESS:     505175 HIT:     482386 MISS:      22789
cpu0_STLB LOAD         ACCESS:     505175 HIT:     482386 MISS:      22789
cpu0_STLB RFO          ACCESS:          0 HIT:          0 MISS:          0
cpu0_STLB PREFETCH     ACCESS:          0 HIT:          0 MISS:          0
cpu0_STLB WRITE        ACCESS:          0 HIT:          0 MISS:          0
cpu0_STLB TRANSLATION  ACCESS:          0 HIT:          0 MISS:          0
cpu0_STLB PREFETCH REQUESTED:          0 ISSUED:          0 USEFUL:          0 USELESS:          0
cpu0_STLB AVERAGE MISS LATENCY: 321.2 cycles

DRAM Statistics

Channel 0 RQ ROW_BUFFER_HIT:      59552
  ROW_BUFFER_MISS:     163258
 AVG DBUS CONGESTED CYCLE: 3.699
WQ ROW_BUFFER_HIT: Channel 0 
  ROW_BUFFER_MISS:       1985
  FULL:       2249
