WARNING: physical memory size is smaller than virtual memory size.

*** ChampSim Multicore Out-of-Order Simulator ***
Warmup Instructions: 50000000
Simulation Instructions: 600000000
Number of CPUs: 1
Page size: 4096

Off-chip DRAM Size: 4 GiB Channels: 1 Width: 64-bit Data Race: 3200 MT/s
Heartbeat CPU 0 instructions: 10000000 cycles: 2500061 heartbeat IPC: 4 cumulative IPC: 4 (Simulation time: 00 hr 03 min 40 sec)
Heartbeat CPU 0 instructions: 20000000 cycles: 5000061 heartbeat IPC: 4 cumulative IPC: 4 (Simulation time: 00 hr 07 min 02 sec)
Heartbeat CPU 0 instructions: 30000000 cycles: 7500061 heartbeat IPC: 4 cumulative IPC: 4 (Simulation time: 00 hr 10 min 35 sec)
Heartbeat CPU 0 instructions: 40000000 cycles: 10000061 heartbeat IPC: 4 cumulative IPC: 4 (Simulation time: 00 hr 14 min 08 sec)
Heartbeat CPU 0 instructions: 50000000 cycles: 12500061 heartbeat IPC: 4 cumulative IPC: 4 (Simulation time: 00 hr 17 min 41 sec)
Warmup finished CPU 0 instructions: 50000000 cycles: 12500062 cumulative IPC: 4 (Simulation time: 00 hr 17 min 41 sec)
Warmup complete CPU 0 instructions: 50000000 cycles: 12500062 cumulative IPC: 4 (Simulation time: 00 hr 17 min 41 sec)
Heartbeat CPU 0 instructions: 60000002 cycles: 16896553 heartbeat IPC: 2.275 cumulative IPC: 2.275 (Simulation time: 00 hr 22 min 55 sec)
Heartbeat CPU 0 instructions: 70000003 cycles: 21873166 heartbeat IPC: 2.009 cumulative IPC: 2.134 (Simulation time: 00 hr 28 min 29 sec)
Heartbeat CPU 0 instructions: 80000001 cycles: 27215142 heartbeat IPC: 1.872 cumulative IPC: 2.039 (Simulation time: 00 hr 34 min 37 sec)
Heartbeat CPU 0 instructions: 90000000 cycles: 31509834 heartbeat IPC: 2.328 cumulative IPC: 2.104 (Simulation time: 00 hr 39 min 31 sec)
Heartbeat CPU 0 instructions: 100000003 cycles: 36357541 heartbeat IPC: 2.063 cumulative IPC: 2.096 (Simulation time: 00 hr 44 min 50 sec)
Heartbeat CPU 0 instructions: 110000002 cycles: 41219449 heartbeat IPC: 2.057 cumulative IPC: 2.089 (Simulation time: 00 hr 50 min 11 sec)
Heartbeat CPU 0 instructions: 120000001 cycles: 46211655 heartbeat IPC: 2.003 cumulative IPC: 2.076 (Simulation time: 00 hr 55 min 29 sec)
Heartbeat CPU 0 instructions: 130000003 cycles: 50769935 heartbeat IPC: 2.194 cumulative IPC: 2.09 (Simulation time: 01 hr 00 min 26 sec)
Heartbeat CPU 0 instructions: 140000002 cycles: 55652323 heartbeat IPC: 2.048 cumulative IPC: 2.086 (Simulation time: 01 hr 05 min 50 sec)
Heartbeat CPU 0 instructions: 150000001 cycles: 60310582 heartbeat IPC: 2.147 cumulative IPC: 2.092 (Simulation time: 01 hr 10 min 52 sec)
Heartbeat CPU 0 instructions: 160000000 cycles: 64939153 heartbeat IPC: 2.16 cumulative IPC: 2.098 (Simulation time: 01 hr 15 min 55 sec)
Heartbeat CPU 0 instructions: 170000000 cycles: 70263719 heartbeat IPC: 1.878 cumulative IPC: 2.077 (Simulation time: 01 hr 21 min 19 sec)
Heartbeat CPU 0 instructions: 180000001 cycles: 75977804 heartbeat IPC: 1.75 cumulative IPC: 2.048 (Simulation time: 01 hr 27 min 00 sec)
Heartbeat CPU 0 instructions: 190000002 cycles: 80439199 heartbeat IPC: 2.241 cumulative IPC: 2.061 (Simulation time: 01 hr 31 min 58 sec)
Heartbeat CPU 0 instructions: 200000002 cycles: 85329804 heartbeat IPC: 2.045 cumulative IPC: 2.06 (Simulation time: 01 hr 37 min 08 sec)
Heartbeat CPU 0 instructions: 210000000 cycles: 90328194 heartbeat IPC: 2.001 cumulative IPC: 2.056 (Simulation time: 01 hr 42 min 25 sec)
Heartbeat CPU 0 instructions: 220000001 cycles: 95250437 heartbeat IPC: 2.032 cumulative IPC: 2.054 (Simulation time: 01 hr 47 min 37 sec)
Heartbeat CPU 0 instructions: 230000002 cycles: 100490432 heartbeat IPC: 1.908 cumulative IPC: 2.046 (Simulation time: 01 hr 53 min 02 sec)
Heartbeat CPU 0 instructions: 240000001 cycles: 105446515 heartbeat IPC: 2.018 cumulative IPC: 2.044 (Simulation time: 01 hr 58 min 15 sec)
Heartbeat CPU 0 instructions: 250000003 cycles: 110620140 heartbeat IPC: 1.933 cumulative IPC: 2.038 (Simulation time: 02 hr 03 min 32 sec)
Heartbeat CPU 0 instructions: 260000001 cycles: 115487404 heartbeat IPC: 2.055 cumulative IPC: 2.039 (Simulation time: 02 hr 08 min 34 sec)
Heartbeat CPU 0 instructions: 270000000 cycles: 122893764 heartbeat IPC: 1.35 cumulative IPC: 1.993 (Simulation time: 02 hr 15 min 15 sec)
Heartbeat CPU 0 instructions: 280000000 cycles: 133993647 heartbeat IPC: 0.9009 cumulative IPC: 1.893 (Simulation time: 02 hr 24 min 37 sec)
Heartbeat CPU 0 instructions: 290000001 cycles: 143471126 heartbeat IPC: 1.055 cumulative IPC: 1.832 (Simulation time: 02 hr 33 min 06 sec)
Heartbeat CPU 0 instructions: 300000003 cycles: 150857955 heartbeat IPC: 1.354 cumulative IPC: 1.807 (Simulation time: 02 hr 40 min 22 sec)
Heartbeat CPU 0 instructions: 310000004 cycles: 162029755 heartbeat IPC: 0.8951 cumulative IPC: 1.739 (Simulation time: 02 hr 49 min 55 sec)
Heartbeat CPU 0 instructions: 320000004 cycles: 167729377 heartbeat IPC: 1.755 cumulative IPC: 1.739 (Simulation time: 02 hr 55 min 52 sec)
Heartbeat CPU 0 instructions: 330000000 cycles: 173018839 heartbeat IPC: 1.891 cumulative IPC: 1.744 (Simulation time: 03 hr 01 min 25 sec)
Heartbeat CPU 0 instructions: 340000001 cycles: 178222554 heartbeat IPC: 1.922 cumulative IPC: 1.75 (Simulation time: 03 hr 06 min 50 sec)
Heartbeat CPU 0 instructions: 350000000 cycles: 183608377 heartbeat IPC: 1.857 cumulative IPC: 1.753 (Simulation time: 03 hr 12 min 24 sec)
Heartbeat CPU 0 instructions: 360000003 cycles: 188769842 heartbeat IPC: 1.937 cumulative IPC: 1.759 (Simulation time: 03 hr 17 min 52 sec)
Heartbeat CPU 0 instructions: 370000001 cycles: 193844348 heartbeat IPC: 1.971 cumulative IPC: 1.765 (Simulation time: 03 hr 23 min 16 sec)
Heartbeat CPU 0 instructions: 380000004 cycles: 199203076 heartbeat IPC: 1.866 cumulative IPC: 1.768 (Simulation time: 03 hr 28 min 51 sec)
Heartbeat CPU 0 instructions: 390000002 cycles: 204635057 heartbeat IPC: 1.841 cumulative IPC: 1.77 (Simulation time: 03 hr 34 min 26 sec)
Heartbeat CPU 0 instructions: 400000000 cycles: 210119010 heartbeat IPC: 1.824 cumulative IPC: 1.771 (Simulation time: 03 hr 40 min 03 sec)
Heartbeat CPU 0 instructions: 410000000 cycles: 218128829 heartbeat IPC: 1.248 cumulative IPC: 1.751 (Simulation time: 03 hr 47 min 24 sec)
Heartbeat CPU 0 instructions: 420000001 cycles: 229090477 heartbeat IPC: 0.9123 cumulative IPC: 1.708 (Simulation time: 03 hr 56 min 47 sec)
Heartbeat CPU 0 instructions: 430000000 cycles: 236732490 heartbeat IPC: 1.309 cumulative IPC: 1.695 (Simulation time: 04 hr 04 min 15 sec)
Heartbeat CPU 0 instructions: 440000002 cycles: 243745947 heartbeat IPC: 1.426 cumulative IPC: 1.687 (Simulation time: 04 hr 11 min 08 sec)
Heartbeat CPU 0 instructions: 450000000 cycles: 250345611 heartbeat IPC: 1.515 cumulative IPC: 1.682 (Simulation time: 04 hr 17 min 49 sec)
Heartbeat CPU 0 instructions: 460000002 cycles: 261250370 heartbeat IPC: 0.917 cumulative IPC: 1.648 (Simulation time: 04 hr 27 min 11 sec)
Heartbeat CPU 0 instructions: 470000000 cycles: 271401317 heartbeat IPC: 0.9851 cumulative IPC: 1.622 (Simulation time: 04 hr 36 min 00 sec)
Heartbeat CPU 0 instructions: 480000000 cycles: 276879657 heartbeat IPC: 1.825 cumulative IPC: 1.626 (Simulation time: 04 hr 41 min 41 sec)
Heartbeat CPU 0 instructions: 490000001 cycles: 282599099 heartbeat IPC: 1.748 cumulative IPC: 1.629 (Simulation time: 04 hr 47 min 29 sec)
Heartbeat CPU 0 instructions: 500000002 cycles: 288217033 heartbeat IPC: 1.78 cumulative IPC: 1.632 (Simulation time: 04 hr 53 min 11 sec)
Heartbeat CPU 0 instructions: 510000000 cycles: 293900119 heartbeat IPC: 1.76 cumulative IPC: 1.635 (Simulation time: 04 hr 58 min 57 sec)
Heartbeat CPU 0 instructions: 520000000 cycles: 299654179 heartbeat IPC: 1.738 cumulative IPC: 1.637 (Simulation time: 05 hr 04 min 45 sec)
Heartbeat CPU 0 instructions: 530000001 cycles: 310718891 heartbeat IPC: 0.9038 cumulative IPC: 1.61 (Simulation time: 05 hr 14 min 05 sec)
Heartbeat CPU 0 instructions: 540000000 cycles: 321536257 heartbeat IPC: 0.9244 cumulative IPC: 1.586 (Simulation time: 05 hr 23 min 29 sec)
Heartbeat CPU 0 instructions: 550000002 cycles: 334015962 heartbeat IPC: 0.8013 cumulative IPC: 1.555 (Simulation time: 05 hr 33 min 45 sec)
Heartbeat CPU 0 instructions: 560000004 cycles: 338999401 heartbeat IPC: 2.007 cumulative IPC: 1.562 (Simulation time: 05 hr 39 min 03 sec)
Heartbeat CPU 0 instructions: 570000001 cycles: 343410000 heartbeat IPC: 2.267 cumulative IPC: 1.571 (Simulation time: 05 hr 44 min 02 sec)
Heartbeat CPU 0 instructions: 580000003 cycles: 347647885 heartbeat IPC: 2.36 cumulative IPC: 1.581 (Simulation time: 05 hr 49 min 03 sec)
Heartbeat CPU 0 instructions: 590000001 cycles: 352552172 heartbeat IPC: 2.039 cumulative IPC: 1.588 (Simulation time: 05 hr 54 min 30 sec)
Heartbeat CPU 0 instructions: 600000003 cycles: 357194744 heartbeat IPC: 2.154 cumulative IPC: 1.596 (Simulation time: 05 hr 59 min 39 sec)
Heartbeat CPU 0 instructions: 610000001 cycles: 362058579 heartbeat IPC: 2.056 cumulative IPC: 1.602 (Simulation time: 06 hr 05 min 06 sec)
Heartbeat CPU 0 instructions: 620000000 cycles: 367126603 heartbeat IPC: 1.973 cumulative IPC: 1.607 (Simulation time: 06 hr 10 min 29 sec)
Heartbeat CPU 0 instructions: 630000002 cycles: 371369216 heartbeat IPC: 2.357 cumulative IPC: 1.616 (Simulation time: 06 hr 15 min 41 sec)
Heartbeat CPU 0 instructions: 640000004 cycles: 376690499 heartbeat IPC: 1.879 cumulative IPC: 1.62 (Simulation time: 06 hr 21 min 25 sec)
Heartbeat CPU 0 instructions: 650000001 cycles: 381451012 heartbeat IPC: 2.101 cumulative IPC: 1.626 (Simulation time: 06 hr 26 min 38 sec)
Simulation finished CPU 0 instructions: 600000001 cycles: 368950951 cumulative IPC: 1.626 (Simulation time: 06 hr 26 min 38 sec)
Simulation complete CPU 0 instructions: 600000001 cycles: 368950951 cumulative IPC: 1.626 (Simulation time: 06 hr 26 min 38 sec)

ChampSim completed all CPUs

=== Simulation ===
CPU 0 runs traces/400.perlbench-50B.champsimtrace.xz
Region of Interest Statistics

CPU 0 cumulative IPC: 1.626 instructions: 600000001 cycles: 368950951
CPU 0 Branch Prediction Accuracy: 93.83% MPKI: 12.71 Average ROB Occupancy at Mispredict: 29.19
Branch type MPKI
BRANCH_DIRECT_JUMP: 0.0176
BRANCH_INDIRECT: 0.38
BRANCH_CONDITIONAL: 11.9
BRANCH_DIRECT_CALL: 0.0067
BRANCH_INDIRECT_CALL: 0.431
BRANCH_RETURN: 0.0161

LLC TOTAL        ACCESS:     889732 HIT:     399188 MISS:     490544
LLC LOAD         ACCESS:     377296 HIT:     156578 MISS:     220718
LLC RFO          ACCESS:      32768 HIT:      12493 MISS:      20275
LLC PREFETCH     ACCESS:     377296 HIT:     141613 MISS:     235683
LLC WRITE        ACCESS:      84318 HIT:      83014 MISS:       1304
LLC TRANSLATION  ACCESS:      18054 HIT:       5490 MISS:      12564
LLC PREFETCH REQUESTED:     377296 ISSUED:     377296 USEFUL:      89700 USELESS:      84058
LLC AVERAGE MISS LATENCY: 558.2 cycles
cpu0_DTLB TOTAL        ACCESS:  156757522 HIT:  155457902 MISS:    1299620
cpu0_DTLB LOAD         ACCESS:  156757522 HIT:  155457902 MISS:    1299620
cpu0_DTLB RFO          ACCESS:          0 HIT:          0 MISS:          0
cpu0_DTLB PREFETCH     ACCESS:          0 HIT:          0 MISS:          0
cpu0_DTLB WRITE        ACCESS:          0 HIT:          0 MISS:          0
cpu0_DTLB TRANSLATION  ACCESS:          0 HIT:          0 MISS:          0
cpu0_DTLB PREFETCH REQUESTED:          0 ISSUED:          0 USEFUL:          0 USELESS:          0
cpu0_DTLB AVERAGE MISS LATENCY: 13.04 cycles
cpu0_ITLB TOTAL        ACCESS:    8932385 HIT:    8733543 MISS:     198842
cpu0_ITLB LOAD         ACCESS:    8932385 HIT:    8733543 MISS:     198842
cpu0_ITLB RFO          ACCESS:          0 HIT:          0 MISS:          0
cpu0_ITLB PREFETCH     ACCESS:          0 HIT:          0 MISS:          0
cpu0_ITLB WRITE        ACCESS:          0 HIT:          0 MISS:          0
cpu0_ITLB TRANSLATION  ACCESS:          0 HIT:          0 MISS:          0
cpu0_ITLB PREFETCH REQUESTED:          0 ISSUED:          0 USEFUL:          0 USELESS:          0
cpu0_ITLB AVERAGE MISS LATENCY: 3.563 cycles
cpu0_L1D TOTAL        ACCESS:  203642312 HIT:  200798412 MISS:    2843900
cpu0_L1D LOAD         ACCESS:  117965684 HIT:  115632076 MISS:    2333608
cpu0_L1D RFO          ACCESS:          0 HIT:          0 MISS:          0
cpu0_L1D PREFETCH     ACCESS:          0 HIT:          0 MISS:          0
cpu0_L1D WRITE        ACCESS:   85648092 HIT:   85164345 MISS:     483747
cpu0_L1D TRANSLATION  ACCESS:      28536 HIT:       1991 MISS:      26545
cpu0_L1D PREFETCH REQUESTED:          0 ISSUED:          0 USEFUL:          0 USELESS:          0
cpu0_L1D AVERAGE MISS LATENCY: 57.72 cycles
cpu0_L1I TOTAL        ACCESS:   10371096 HIT:    8572047 MISS:    1799049
cpu0_L1I LOAD         ACCESS:   10371096 HIT:    8572047 MISS:    1799049
cpu0_L1I RFO          ACCESS:          0 HIT:          0 MISS:          0
cpu0_L1I PREFETCH     ACCESS:          0 HIT:          0 MISS:          0
cpu0_L1I WRITE        ACCESS:          0 HIT:          0 MISS:          0
cpu0_L1I TRANSLATION  ACCESS:          0 HIT:          0 MISS:          0
cpu0_L1I PREFETCH REQUESTED:          0 ISSUED:          0 USEFUL:          0 USELESS:          0
cpu0_L1I AVERAGE MISS LATENCY: 10.86 cycles
cpu0_L2C TOTAL        ACCESS:    3235418 HIT:    2806354 MISS:     429064
cpu0_L2C LOAD         ACCESS:    2711746 HIT:    2334450 MISS:     377296
cpu0_L2C RFO          ACCESS:     133698 HIT:     100930 MISS:      32768
cpu0_L2C PREFETCH     ACCESS:          0 HIT:          0 MISS:          0
cpu0_L2C WRITE        ACCESS:     363515 HIT:     362569 MISS:        946
cpu0_L2C TRANSLATION  ACCESS:      26459 HIT:       8405 MISS:      18054
cpu0_L2C PREFETCH REQUESTED:          0 ISSUED:          0 USEFUL:          0 USELESS:          0
cpu0_L2C AVERAGE MISS LATENCY: 376.3 cycles
cpu0_STLB TOTAL        ACCESS:    1009118 HIT:     982429 MISS:      26689
cpu0_STLB LOAD         ACCESS:    1009118 HIT:     982429 MISS:      26689
cpu0_STLB RFO          ACCESS:          0 HIT:          0 MISS:          0
cpu0_STLB PREFETCH     ACCESS:          0 HIT:          0 MISS:          0
cpu0_STLB WRITE        ACCESS:          0 HIT:          0 MISS:          0
cpu0_STLB TRANSLATION  ACCESS:          0 HIT:          0 MISS:          0
cpu0_STLB PREFETCH REQUESTED:          0 ISSUED:          0 USEFUL:          0 USELESS:          0
cpu0_STLB AVERAGE MISS LATENCY: 420.5 cycles

DRAM Statistics

Channel 0 RQ ROW_BUFFER_HIT:      80480
  ROW_BUFFER_MISS:     337475
 AVG DBUS CONGESTED CYCLE: 3.87
WQ ROW_BUFFER_HIT: Channel 0 
  ROW_BUFFER_MISS:       6501
  FULL:      48146
