WARNING: physical memory size is smaller than virtual memory size.

*** ChampSim Multicore Out-of-Order Simulator ***
Warmup Instructions: 50000000
Simulation Instructions: 600000000
Number of CPUs: 1
Page size: 4096

Off-chip DRAM Size: 4 GiB Channels: 1 Width: 64-bit Data Race: 3200 MT/s
Heartbeat CPU 0 instructions: 10000001 cycles: 2500318 heartbeat IPC: 3.999 cumulative IPC: 3.999 (Simulation time: 00 hr 03 min 56 sec)
Heartbeat CPU 0 instructions: 20000002 cycles: 5037079 heartbeat IPC: 3.942 cumulative IPC: 3.971 (Simulation time: 00 hr 07 min 53 sec)
Heartbeat CPU 0 instructions: 30000002 cycles: 7537079 heartbeat IPC: 4 cumulative IPC: 3.98 (Simulation time: 00 hr 11 min 33 sec)
Heartbeat CPU 0 instructions: 40000002 cycles: 10037079 heartbeat IPC: 4 cumulative IPC: 3.985 (Simulation time: 00 hr 15 min 12 sec)
Heartbeat CPU 0 instructions: 50000002 cycles: 12537079 heartbeat IPC: 4 cumulative IPC: 3.988 (Simulation time: 00 hr 18 min 49 sec)
Warmup finished CPU 0 instructions: 50000002 cycles: 12537080 cumulative IPC: 3.988 (Simulation time: 00 hr 18 min 49 sec)
Warmup complete CPU 0 instructions: 50000002 cycles: 12537080 cumulative IPC: 3.988 (Simulation time: 00 hr 18 min 49 sec)
Heartbeat CPU 0 instructions: 60000001 cycles: 15685424 heartbeat IPC: 3.176 cumulative IPC: 3.176 (Simulation time: 00 hr 23 min 06 sec)
Heartbeat CPU 0 instructions: 70000004 cycles: 18864828 heartbeat IPC: 3.145 cumulative IPC: 3.161 (Simulation time: 00 hr 27 min 37 sec)
Heartbeat CPU 0 instructions: 80000001 cycles: 22040486 heartbeat IPC: 3.149 cumulative IPC: 3.157 (Simulation time: 00 hr 32 min 08 sec)
Heartbeat CPU 0 instructions: 90000001 cycles: 25080504 heartbeat IPC: 3.289 cumulative IPC: 3.189 (Simulation time: 00 hr 36 min 35 sec)
Heartbeat CPU 0 instructions: 100000000 cycles: 28109103 heartbeat IPC: 3.302 cumulative IPC: 3.211 (Simulation time: 00 hr 41 min 03 sec)
Heartbeat CPU 0 instructions: 110000000 cycles: 31156292 heartbeat IPC: 3.282 cumulative IPC: 3.222 (Simulation time: 00 hr 45 min 29 sec)
Heartbeat CPU 0 instructions: 120000001 cycles: 34230855 heartbeat IPC: 3.252 cumulative IPC: 3.227 (Simulation time: 00 hr 49 min 57 sec)
Heartbeat CPU 0 instructions: 130000001 cycles: 37157153 heartbeat IPC: 3.417 cumulative IPC: 3.249 (Simulation time: 00 hr 54 min 23 sec)
Heartbeat CPU 0 instructions: 140000001 cycles: 40302724 heartbeat IPC: 3.179 cumulative IPC: 3.241 (Simulation time: 00 hr 58 min 54 sec)
Heartbeat CPU 0 instructions: 150000001 cycles: 43433750 heartbeat IPC: 3.194 cumulative IPC: 3.237 (Simulation time: 01 hr 03 min 26 sec)
Heartbeat CPU 0 instructions: 160000004 cycles: 46581391 heartbeat IPC: 3.177 cumulative IPC: 3.231 (Simulation time: 01 hr 07 min 58 sec)
Heartbeat CPU 0 instructions: 170000000 cycles: 55119723 heartbeat IPC: 1.171 cumulative IPC: 2.818 (Simulation time: 01 hr 16 min 25 sec)
Heartbeat CPU 0 instructions: 180000004 cycles: 64057139 heartbeat IPC: 1.119 cumulative IPC: 2.523 (Simulation time: 01 hr 25 min 14 sec)
Heartbeat CPU 0 instructions: 190000001 cycles: 72486248 heartbeat IPC: 1.186 cumulative IPC: 2.335 (Simulation time: 01 hr 33 min 31 sec)
Heartbeat CPU 0 instructions: 200000004 cycles: 75543018 heartbeat IPC: 3.271 cumulative IPC: 2.381 (Simulation time: 01 hr 37 min 59 sec)
Heartbeat CPU 0 instructions: 210000001 cycles: 78605157 heartbeat IPC: 3.266 cumulative IPC: 2.422 (Simulation time: 01 hr 42 min 31 sec)
Heartbeat CPU 0 instructions: 220000000 cycles: 81585500 heartbeat IPC: 3.355 cumulative IPC: 2.462 (Simulation time: 01 hr 47 min 25 sec)
Heartbeat CPU 0 instructions: 230000004 cycles: 84786628 heartbeat IPC: 3.124 cumulative IPC: 2.491 (Simulation time: 01 hr 51 min 56 sec)
Heartbeat CPU 0 instructions: 240000002 cycles: 87930518 heartbeat IPC: 3.181 cumulative IPC: 2.52 (Simulation time: 01 hr 56 min 33 sec)
Heartbeat CPU 0 instructions: 250000000 cycles: 91066701 heartbeat IPC: 3.189 cumulative IPC: 2.547 (Simulation time: 02 hr 01 min 05 sec)
Heartbeat CPU 0 instructions: 260000002 cycles: 94153737 heartbeat IPC: 3.239 cumulative IPC: 2.573 (Simulation time: 02 hr 05 min 38 sec)
Heartbeat CPU 0 instructions: 270000002 cycles: 97164340 heartbeat IPC: 3.322 cumulative IPC: 2.6 (Simulation time: 02 hr 10 min 07 sec)
Heartbeat CPU 0 instructions: 280000002 cycles: 100164551 heartbeat IPC: 3.333 cumulative IPC: 2.625 (Simulation time: 02 hr 14 min 42 sec)
Heartbeat CPU 0 instructions: 290000002 cycles: 103221536 heartbeat IPC: 3.271 cumulative IPC: 2.647 (Simulation time: 02 hr 19 min 14 sec)
Heartbeat CPU 0 instructions: 300000003 cycles: 106199326 heartbeat IPC: 3.358 cumulative IPC: 2.669 (Simulation time: 02 hr 23 min 43 sec)
Heartbeat CPU 0 instructions: 310000001 cycles: 109324666 heartbeat IPC: 3.2 cumulative IPC: 2.686 (Simulation time: 02 hr 28 min 16 sec)
Heartbeat CPU 0 instructions: 320000003 cycles: 112457401 heartbeat IPC: 3.192 cumulative IPC: 2.702 (Simulation time: 02 hr 32 min 47 sec)
Heartbeat CPU 0 instructions: 330000003 cycles: 115597341 heartbeat IPC: 3.185 cumulative IPC: 2.717 (Simulation time: 02 hr 37 min 16 sec)
Heartbeat CPU 0 instructions: 340000000 cycles: 124213274 heartbeat IPC: 1.161 cumulative IPC: 2.597 (Simulation time: 02 hr 46 min 08 sec)
Heartbeat CPU 0 instructions: 350000000 cycles: 133421370 heartbeat IPC: 1.086 cumulative IPC: 2.482 (Simulation time: 02 hr 55 min 04 sec)
Heartbeat CPU 0 instructions: 360000004 cycles: 141944380 heartbeat IPC: 1.173 cumulative IPC: 2.396 (Simulation time: 03 hr 03 min 26 sec)
Heartbeat CPU 0 instructions: 370000000 cycles: 144956071 heartbeat IPC: 3.32 cumulative IPC: 2.417 (Simulation time: 03 hr 07 min 58 sec)
Heartbeat CPU 0 instructions: 380000001 cycles: 147946929 heartbeat IPC: 3.344 cumulative IPC: 2.437 (Simulation time: 03 hr 12 min 24 sec)
Heartbeat CPU 0 instructions: 390000002 cycles: 151005780 heartbeat IPC: 3.269 cumulative IPC: 2.455 (Simulation time: 03 hr 16 min 53 sec)
Heartbeat CPU 0 instructions: 400000004 cycles: 153971115 heartbeat IPC: 3.372 cumulative IPC: 2.475 (Simulation time: 03 hr 21 min 19 sec)
Heartbeat CPU 0 instructions: 410000001 cycles: 157037509 heartbeat IPC: 3.261 cumulative IPC: 2.491 (Simulation time: 03 hr 25 min 47 sec)
Heartbeat CPU 0 instructions: 420000002 cycles: 160346089 heartbeat IPC: 3.022 cumulative IPC: 2.503 (Simulation time: 03 hr 30 min 28 sec)
Heartbeat CPU 0 instructions: 430000001 cycles: 163407369 heartbeat IPC: 3.267 cumulative IPC: 2.519 (Simulation time: 03 hr 34 min 58 sec)
Heartbeat CPU 0 instructions: 440000004 cycles: 166673678 heartbeat IPC: 3.062 cumulative IPC: 2.53 (Simulation time: 03 hr 39 min 35 sec)
Heartbeat CPU 0 instructions: 450000002 cycles: 169686865 heartbeat IPC: 3.319 cumulative IPC: 2.545 (Simulation time: 03 hr 44 min 04 sec)
Heartbeat CPU 0 instructions: 460000000 cycles: 172726299 heartbeat IPC: 3.29 cumulative IPC: 2.559 (Simulation time: 03 hr 48 min 31 sec)
Heartbeat CPU 0 instructions: 470000001 cycles: 175648922 heartbeat IPC: 3.422 cumulative IPC: 2.575 (Simulation time: 03 hr 52 min 57 sec)
Heartbeat CPU 0 instructions: 480000003 cycles: 178808808 heartbeat IPC: 3.165 cumulative IPC: 2.586 (Simulation time: 03 hr 57 min 25 sec)
Heartbeat CPU 0 instructions: 490000004 cycles: 181716557 heartbeat IPC: 3.439 cumulative IPC: 2.601 (Simulation time: 04 hr 01 min 47 sec)
Heartbeat CPU 0 instructions: 500000004 cycles: 184777337 heartbeat IPC: 3.267 cumulative IPC: 2.613 (Simulation time: 04 hr 06 min 15 sec)
Heartbeat CPU 0 instructions: 510000003 cycles: 187889614 heartbeat IPC: 3.213 cumulative IPC: 2.623 (Simulation time: 04 hr 10 min 52 sec)
Heartbeat CPU 0 instructions: 520000001 cycles: 190878745 heartbeat IPC: 3.345 cumulative IPC: 2.635 (Simulation time: 04 hr 15 min 23 sec)
Heartbeat CPU 0 instructions: 530000001 cycles: 193963315 heartbeat IPC: 3.242 cumulative IPC: 2.646 (Simulation time: 04 hr 19 min 52 sec)
Heartbeat CPU 0 instructions: 540000001 cycles: 197022135 heartbeat IPC: 3.269 cumulative IPC: 2.656 (Simulation time: 04 hr 24 min 20 sec)
Heartbeat CPU 0 instructions: 550000001 cycles: 200115673 heartbeat IPC: 3.233 cumulative IPC: 2.666 (Simulation time: 04 hr 28 min 54 sec)
Heartbeat CPU 0 instructions: 560000004 cycles: 203350849 heartbeat IPC: 3.091 cumulative IPC: 2.673 (Simulation time: 04 hr 33 min 29 sec)
Heartbeat CPU 0 instructions: 570000004 cycles: 209064804 heartbeat IPC: 1.75 cumulative IPC: 2.646 (Simulation time: 04 hr 40 min 02 sec)
Heartbeat CPU 0 instructions: 580000003 cycles: 218756929 heartbeat IPC: 1.032 cumulative IPC: 2.57 (Simulation time: 04 hr 49 min 12 sec)
Heartbeat CPU 0 instructions: 590000002 cycles: 229803019 heartbeat IPC: 0.9053 cumulative IPC: 2.485 (Simulation time: 04 hr 59 min 19 sec)
Heartbeat CPU 0 instructions: 600000000 cycles: 232922742 heartbeat IPC: 3.205 cumulative IPC: 2.496 (Simulation time: 05 hr 03 min 47 sec)
Heartbeat CPU 0 instructions: 610000002 cycles: 235960072 heartbeat IPC: 3.292 cumulative IPC: 2.506 (Simulation time: 05 hr 08 min 11 sec)
Heartbeat CPU 0 instructions: 620000001 cycles: 238806609 heartbeat IPC: 3.513 cumulative IPC: 2.519 (Simulation time: 05 hr 12 min 44 sec)
Heartbeat CPU 0 instructions: 630000002 cycles: 241918610 heartbeat IPC: 3.213 cumulative IPC: 2.529 (Simulation time: 05 hr 17 min 17 sec)
Heartbeat CPU 0 instructions: 640000004 cycles: 244927003 heartbeat IPC: 3.324 cumulative IPC: 2.539 (Simulation time: 05 hr 21 min 45 sec)
Heartbeat CPU 0 instructions: 650000000 cycles: 247756300 heartbeat IPC: 3.534 cumulative IPC: 2.551 (Simulation time: 05 hr 26 min 06 sec)
Simulation finished CPU 0 instructions: 600000001 cycles: 235219222 cumulative IPC: 2.551 (Simulation time: 05 hr 26 min 06 sec)
Simulation complete CPU 0 instructions: 600000001 cycles: 235219222 cumulative IPC: 2.551 (Simulation time: 05 hr 26 min 06 sec)

ChampSim completed all CPUs

=== Simulation ===
CPU 0 runs traces/400.perlbench-41B.champsimtrace.xz
Region of Interest Statistics

CPU 0 cumulative IPC: 2.551 instructions: 600000001 cycles: 235219222
CPU 0 Branch Prediction Accuracy: 98.9% MPKI: 2.275 Average ROB Occupancy at Mispredict: 91.51
Branch type MPKI
BRANCH_DIRECT_JUMP: 0.0123
BRANCH_INDIRECT: 0.323
BRANCH_CONDITIONAL: 1.73
BRANCH_DIRECT_CALL: 0.0043
BRANCH_INDIRECT_CALL: 0.2
BRANCH_RETURN: 0.00828

LLC TOTAL        ACCESS:     414332 HIT:     136090 MISS:     278242
LLC LOAD         ACCESS:     309591 HIT:      59664 MISS:     249927
LLC RFO          ACCESS:      25044 HIT:       8355 MISS:      16689
LLC PREFETCH     ACCESS:          0 HIT:          0 MISS:          0
LLC WRITE        ACCESS:      63923 HIT:      62704 MISS:       1219
LLC TRANSLATION  ACCESS:      15774 HIT:       5367 MISS:      10407
LLC PREFETCH REQUESTED:          0 ISSUED:          0 USEFUL:          0 USELESS:          0
LLC AVERAGE MISS LATENCY: 632.8 cycles
cpu0_DTLB TOTAL        ACCESS:  131051911 HIT:  130350777 MISS:     701134
cpu0_DTLB LOAD         ACCESS:  131051911 HIT:  130350777 MISS:     701134
cpu0_DTLB RFO          ACCESS:          0 HIT:          0 MISS:          0
cpu0_DTLB PREFETCH     ACCESS:          0 HIT:          0 MISS:          0
cpu0_DTLB WRITE        ACCESS:          0 HIT:          0 MISS:          0
cpu0_DTLB TRANSLATION  ACCESS:          0 HIT:          0 MISS:          0
cpu0_DTLB PREFETCH REQUESTED:          0 ISSUED:          0 USEFUL:          0 USELESS:          0
cpu0_DTLB AVERAGE MISS LATENCY: 16.01 cycles
cpu0_ITLB TOTAL        ACCESS:    4866169 HIT:    4804891 MISS:      61278
cpu0_ITLB LOAD         ACCESS:    4866169 HIT:    4804891 MISS:      61278
cpu0_ITLB RFO          ACCESS:          0 HIT:          0 MISS:          0
cpu0_ITLB PREFETCH     ACCESS:          0 HIT:          0 MISS:          0
cpu0_ITLB WRITE        ACCESS:          0 HIT:          0 MISS:          0
cpu0_ITLB TRANSLATION  ACCESS:          0 HIT:          0 MISS:          0
cpu0_ITLB PREFETCH REQUESTED:          0 ISSUED:          0 USEFUL:          0 USELESS:          0
cpu0_ITLB AVERAGE MISS LATENCY: 7.131 cycles
cpu0_L1D TOTAL        ACCESS:  176701981 HIT:  175299911 MISS:    1402070
cpu0_L1D LOAD         ACCESS:   93627928 HIT:   92545079 MISS:    1082849
cpu0_L1D RFO          ACCESS:          0 HIT:          0 MISS:          0
cpu0_L1D PREFETCH     ACCESS:          0 HIT:          0 MISS:          0
cpu0_L1D WRITE        ACCESS:   83049584 HIT:   82753232 MISS:     296352
cpu0_L1D TRANSLATION  ACCESS:      24469 HIT:       1600 MISS:      22869
cpu0_L1D PREFETCH REQUESTED:          0 ISSUED:          0 USEFUL:          0 USELESS:          0
cpu0_L1D AVERAGE MISS LATENCY: 121.2 cycles
cpu0_L1I TOTAL        ACCESS:    5642903 HIT:    4842122 MISS:     800781
cpu0_L1I LOAD         ACCESS:    5642903 HIT:    4842122 MISS:     800781
cpu0_L1I RFO          ACCESS:          0 HIT:          0 MISS:          0
cpu0_L1I PREFETCH     ACCESS:          0 HIT:          0 MISS:          0
cpu0_L1I WRITE        ACCESS:          0 HIT:          0 MISS:          0
cpu0_L1I TRANSLATION  ACCESS:          0 HIT:          0 MISS:          0
cpu0_L1I PREFETCH REQUESTED:          0 ISSUED:          0 USEFUL:          0 USELESS:          0
cpu0_L1I AVERAGE MISS LATENCY: 13.95 cycles
cpu0_L2C TOTAL        ACCESS:    1381683 HIT:    1030392 MISS:     351291
cpu0_L2C LOAD         ACCESS:    1124062 HIT:     814471 MISS:     309591
cpu0_L2C RFO          ACCESS:      64536 HIT:      39492 MISS:      25044
cpu0_L2C PREFETCH     ACCESS:          0 HIT:          0 MISS:          0
cpu0_L2C WRITE        ACCESS:     170297 HIT:     169415 MISS:        882
cpu0_L2C TRANSLATION  ACCESS:      22788 HIT:       7014 MISS:      15774
cpu0_L2C PREFETCH REQUESTED:          0 ISSUED:          0 USEFUL:          0 USELESS:          0
cpu0_L2C AVERAGE MISS LATENCY: 521.9 cycles
cpu0_STLB TOTAL        ACCESS:     508636 HIT:     485846 MISS:      22790
cpu0_STLB LOAD         ACCESS:     508636 HIT:     485846 MISS:      22790
cpu0_STLB RFO          ACCESS:          0 HIT:          0 MISS:          0
cpu0_STLB PREFETCH     ACCESS:          0 HIT:          0 MISS:          0
cpu0_STLB WRITE        ACCESS:          0 HIT:          0 MISS:          0
cpu0_STLB TRANSLATION  ACCESS:          0 HIT:          0 MISS:          0
cpu0_STLB PREFETCH REQUESTED:          0 ISSUED:          0 USEFUL:          0 USELESS:          0
cpu0_STLB AVERAGE MISS LATENCY: 389.3 cycles

DRAM Statistics

Channel 0 RQ ROW_BUFFER_HIT:      48210
  ROW_BUFFER_MISS:     228761
 AVG DBUS CONGESTED CYCLE: 3.843
WQ ROW_BUFFER_HIT: Channel 0 
  ROW_BUFFER_MISS:       4986
  FULL:      40163
