WARNING: physical memory size is smaller than virtual memory size.

*** ChampSim Multicore Out-of-Order Simulator ***
Warmup Instructions: 50000000
Simulation Instructions: 600000000
Number of CPUs: 1
Page size: 4096

Off-chip DRAM Size: 4 GiB Channels: 1 Width: 64-bit Data Race: 3200 MT/s
Heartbeat CPU 0 instructions: 10000000 cycles: 2500061 heartbeat IPC: 4 cumulative IPC: 4 (Simulation time: 00 hr 03 min 27 sec)
Heartbeat CPU 0 instructions: 20000000 cycles: 5000061 heartbeat IPC: 4 cumulative IPC: 4 (Simulation time: 00 hr 06 min 50 sec)
Heartbeat CPU 0 instructions: 30000000 cycles: 7500061 heartbeat IPC: 4 cumulative IPC: 4 (Simulation time: 00 hr 10 min 12 sec)
Heartbeat CPU 0 instructions: 40000000 cycles: 10000061 heartbeat IPC: 4 cumulative IPC: 4 (Simulation time: 00 hr 13 min 36 sec)
Heartbeat CPU 0 instructions: 50000000 cycles: 12500061 heartbeat IPC: 4 cumulative IPC: 4 (Simulation time: 00 hr 17 min 12 sec)
Warmup finished CPU 0 instructions: 50000000 cycles: 12500062 cumulative IPC: 4 (Simulation time: 00 hr 17 min 12 sec)
Warmup complete CPU 0 instructions: 50000000 cycles: 12500062 cumulative IPC: 4 (Simulation time: 00 hr 17 min 12 sec)
Heartbeat CPU 0 instructions: 60000002 cycles: 16445999 heartbeat IPC: 2.534 cumulative IPC: 2.534 (Simulation time: 00 hr 21 min 55 sec)
Heartbeat CPU 0 instructions: 70000003 cycles: 20769163 heartbeat IPC: 2.313 cumulative IPC: 2.419 (Simulation time: 00 hr 26 min 46 sec)
Heartbeat CPU 0 instructions: 80000003 cycles: 25245416 heartbeat IPC: 2.234 cumulative IPC: 2.354 (Simulation time: 00 hr 31 min 43 sec)
Heartbeat CPU 0 instructions: 90000000 cycles: 28937578 heartbeat IPC: 2.708 cumulative IPC: 2.433 (Simulation time: 00 hr 36 min 14 sec)
Heartbeat CPU 0 instructions: 100000003 cycles: 32840854 heartbeat IPC: 2.562 cumulative IPC: 2.458 (Simulation time: 00 hr 40 min 54 sec)
Heartbeat CPU 0 instructions: 110000002 cycles: 36946605 heartbeat IPC: 2.436 cumulative IPC: 2.454 (Simulation time: 00 hr 45 min 42 sec)
Heartbeat CPU 0 instructions: 120000001 cycles: 40665239 heartbeat IPC: 2.689 cumulative IPC: 2.485 (Simulation time: 00 hr 50 min 14 sec)
Heartbeat CPU 0 instructions: 130000003 cycles: 44441520 heartbeat IPC: 2.648 cumulative IPC: 2.505 (Simulation time: 00 hr 54 min 48 sec)
Heartbeat CPU 0 instructions: 140000002 cycles: 48576040 heartbeat IPC: 2.419 cumulative IPC: 2.495 (Simulation time: 00 hr 59 min 28 sec)
Heartbeat CPU 0 instructions: 150000001 cycles: 52629234 heartbeat IPC: 2.467 cumulative IPC: 2.492 (Simulation time: 01 hr 04 min 11 sec)
Heartbeat CPU 0 instructions: 160000000 cycles: 56288207 heartbeat IPC: 2.733 cumulative IPC: 2.512 (Simulation time: 01 hr 08 min 39 sec)
Heartbeat CPU 0 instructions: 170000001 cycles: 60468425 heartbeat IPC: 2.392 cumulative IPC: 2.502 (Simulation time: 01 hr 13 min 29 sec)
Heartbeat CPU 0 instructions: 180000001 cycles: 63933063 heartbeat IPC: 2.886 cumulative IPC: 2.528 (Simulation time: 01 hr 17 min 55 sec)
Heartbeat CPU 0 instructions: 190000002 cycles: 67523846 heartbeat IPC: 2.785 cumulative IPC: 2.544 (Simulation time: 01 hr 22 min 24 sec)
Heartbeat CPU 0 instructions: 200000002 cycles: 71308535 heartbeat IPC: 2.642 cumulative IPC: 2.551 (Simulation time: 01 hr 27 min 00 sec)
Heartbeat CPU 0 instructions: 210000000 cycles: 74950208 heartbeat IPC: 2.746 cumulative IPC: 2.562 (Simulation time: 01 hr 31 min 30 sec)
Heartbeat CPU 0 instructions: 220000001 cycles: 78823696 heartbeat IPC: 2.582 cumulative IPC: 2.563 (Simulation time: 01 hr 36 min 10 sec)
Heartbeat CPU 0 instructions: 230000002 cycles: 82666997 heartbeat IPC: 2.602 cumulative IPC: 2.565 (Simulation time: 01 hr 40 min 48 sec)
Heartbeat CPU 0 instructions: 240000001 cycles: 86878248 heartbeat IPC: 2.375 cumulative IPC: 2.555 (Simulation time: 01 hr 45 min 44 sec)
Heartbeat CPU 0 instructions: 250000003 cycles: 91450764 heartbeat IPC: 2.187 cumulative IPC: 2.533 (Simulation time: 01 hr 50 min 54 sec)
Heartbeat CPU 0 instructions: 260000000 cycles: 95247667 heartbeat IPC: 2.634 cumulative IPC: 2.538 (Simulation time: 01 hr 55 min 32 sec)
Heartbeat CPU 0 instructions: 270000003 cycles: 102453937 heartbeat IPC: 1.388 cumulative IPC: 2.446 (Simulation time: 02 hr 02 min 22 sec)
Heartbeat CPU 0 instructions: 280000000 cycles: 114024326 heartbeat IPC: 0.8643 cumulative IPC: 2.265 (Simulation time: 02 hr 12 min 12 sec)
Heartbeat CPU 0 instructions: 290000000 cycles: 124203816 heartbeat IPC: 0.9824 cumulative IPC: 2.149 (Simulation time: 02 hr 21 min 34 sec)
Heartbeat CPU 0 instructions: 300000003 cycles: 131544148 heartbeat IPC: 1.362 cumulative IPC: 2.1 (Simulation time: 02 hr 28 min 46 sec)
Heartbeat CPU 0 instructions: 310000004 cycles: 142375632 heartbeat IPC: 0.9232 cumulative IPC: 2.002 (Simulation time: 02 hr 38 min 23 sec)
Heartbeat CPU 0 instructions: 320000004 cycles: 147383525 heartbeat IPC: 1.997 cumulative IPC: 2.002 (Simulation time: 02 hr 44 min 04 sec)
Heartbeat CPU 0 instructions: 330000000 cycles: 151466639 heartbeat IPC: 2.449 cumulative IPC: 2.015 (Simulation time: 02 hr 49 min 08 sec)
Heartbeat CPU 0 instructions: 340000001 cycles: 155817670 heartbeat IPC: 2.298 cumulative IPC: 2.023 (Simulation time: 02 hr 54 min 12 sec)
Heartbeat CPU 0 instructions: 350000004 cycles: 160295912 heartbeat IPC: 2.233 cumulative IPC: 2.03 (Simulation time: 02 hr 59 min 21 sec)
Heartbeat CPU 0 instructions: 360000003 cycles: 164461524 heartbeat IPC: 2.401 cumulative IPC: 2.04 (Simulation time: 03 hr 04 min 18 sec)
Heartbeat CPU 0 instructions: 370000001 cycles: 168530496 heartbeat IPC: 2.458 cumulative IPC: 2.051 (Simulation time: 03 hr 09 min 08 sec)
Heartbeat CPU 0 instructions: 380000004 cycles: 172462369 heartbeat IPC: 2.543 cumulative IPC: 2.063 (Simulation time: 03 hr 14 min 12 sec)
Heartbeat CPU 0 instructions: 390000002 cycles: 176612497 heartbeat IPC: 2.41 cumulative IPC: 2.072 (Simulation time: 03 hr 19 min 25 sec)
Heartbeat CPU 0 instructions: 400000000 cycles: 181005051 heartbeat IPC: 2.277 cumulative IPC: 2.077 (Simulation time: 03 hr 24 min 34 sec)
Heartbeat CPU 0 instructions: 410000000 cycles: 188974162 heartbeat IPC: 1.255 cumulative IPC: 2.04 (Simulation time: 03 hr 32 min 04 sec)
Heartbeat CPU 0 instructions: 420000003 cycles: 200580577 heartbeat IPC: 0.8616 cumulative IPC: 1.967 (Simulation time: 03 hr 42 min 03 sec)
Heartbeat CPU 0 instructions: 430000000 cycles: 208537890 heartbeat IPC: 1.257 cumulative IPC: 1.938 (Simulation time: 03 hr 49 min 51 sec)
Heartbeat CPU 0 instructions: 440000004 cycles: 215263771 heartbeat IPC: 1.487 cumulative IPC: 1.923 (Simulation time: 03 hr 56 min 46 sec)
Heartbeat CPU 0 instructions: 450000000 cycles: 222008067 heartbeat IPC: 1.483 cumulative IPC: 1.909 (Simulation time: 04 hr 03 min 46 sec)
Heartbeat CPU 0 instructions: 460000002 cycles: 232824761 heartbeat IPC: 0.9245 cumulative IPC: 1.861 (Simulation time: 04 hr 13 min 17 sec)
Heartbeat CPU 0 instructions: 470000003 cycles: 242332766 heartbeat IPC: 1.052 cumulative IPC: 1.827 (Simulation time: 04 hr 21 min 52 sec)
Heartbeat CPU 0 instructions: 480000003 cycles: 246654109 heartbeat IPC: 2.314 cumulative IPC: 1.836 (Simulation time: 04 hr 26 min 54 sec)
Heartbeat CPU 0 instructions: 490000001 cycles: 251426743 heartbeat IPC: 2.095 cumulative IPC: 1.842 (Simulation time: 04 hr 32 min 15 sec)
Heartbeat CPU 0 instructions: 500000002 cycles: 255947766 heartbeat IPC: 2.212 cumulative IPC: 1.848 (Simulation time: 04 hr 37 min 26 sec)
Heartbeat CPU 0 instructions: 510000000 cycles: 260244782 heartbeat IPC: 2.327 cumulative IPC: 1.857 (Simulation time: 04 hr 42 min 32 sec)
Heartbeat CPU 0 instructions: 520000000 cycles: 264736806 heartbeat IPC: 2.226 cumulative IPC: 1.863 (Simulation time: 04 hr 47 min 43 sec)
Heartbeat CPU 0 instructions: 530000001 cycles: 276763976 heartbeat IPC: 0.8315 cumulative IPC: 1.816 (Simulation time: 04 hr 57 min 48 sec)
Heartbeat CPU 0 instructions: 540000000 cycles: 288537224 heartbeat IPC: 0.8494 cumulative IPC: 1.775 (Simulation time: 05 hr 08 min 11 sec)
Heartbeat CPU 0 instructions: 550000004 cycles: 301290250 heartbeat IPC: 0.7841 cumulative IPC: 1.731 (Simulation time: 05 hr 18 min 55 sec)
Heartbeat CPU 0 instructions: 560000004 cycles: 305611382 heartbeat IPC: 2.314 cumulative IPC: 1.74 (Simulation time: 05 hr 23 min 55 sec)
Heartbeat CPU 0 instructions: 570000001 cycles: 308740681 heartbeat IPC: 3.196 cumulative IPC: 1.755 (Simulation time: 05 hr 28 min 16 sec)
Heartbeat CPU 0 instructions: 580000003 cycles: 312287013 heartbeat IPC: 2.82 cumulative IPC: 1.768 (Simulation time: 05 hr 32 min 44 sec)
Heartbeat CPU 0 instructions: 590000002 cycles: 315913049 heartbeat IPC: 2.758 cumulative IPC: 1.78 (Simulation time: 05 hr 37 min 18 sec)
Heartbeat CPU 0 instructions: 600000003 cycles: 318980014 heartbeat IPC: 3.261 cumulative IPC: 1.795 (Simulation time: 05 hr 41 min 38 sec)
Heartbeat CPU 0 instructions: 610000001 cycles: 322490156 heartbeat IPC: 2.849 cumulative IPC: 1.807 (Simulation time: 05 hr 46 min 24 sec)
Heartbeat CPU 0 instructions: 620000000 cycles: 326508330 heartbeat IPC: 2.489 cumulative IPC: 1.815 (Simulation time: 05 hr 51 min 14 sec)
Heartbeat CPU 0 instructions: 630000002 cycles: 329876308 heartbeat IPC: 2.969 cumulative IPC: 1.827 (Simulation time: 05 hr 55 min 36 sec)
Heartbeat CPU 0 instructions: 640000004 cycles: 333892677 heartbeat IPC: 2.49 cumulative IPC: 1.836 (Simulation time: 06 hr 00 min 24 sec)
Heartbeat CPU 0 instructions: 650000001 cycles: 337717928 heartbeat IPC: 2.614 cumulative IPC: 1.845 (Simulation time: 06 hr 05 min 21 sec)
Simulation finished CPU 0 instructions: 600000001 cycles: 325217867 cumulative IPC: 1.845 (Simulation time: 06 hr 05 min 21 sec)
Simulation complete CPU 0 instructions: 600000001 cycles: 325217867 cumulative IPC: 1.845 (Simulation time: 06 hr 05 min 21 sec)

ChampSim completed all CPUs

=== Simulation ===
CPU 0 runs traces/400.perlbench-50B.champsimtrace.xz
Region of Interest Statistics

CPU 0 cumulative IPC: 1.845 instructions: 600000001 cycles: 325217867
CPU 0 Branch Prediction Accuracy: 96.2% MPKI: 7.839 Average ROB Occupancy at Mispredict: 43.47
Branch type MPKI
BRANCH_DIRECT_JUMP: 0.0176
BRANCH_INDIRECT: 0.38
BRANCH_CONDITIONAL: 6.99
BRANCH_DIRECT_CALL: 0.0067
BRANCH_INDIRECT_CALL: 0.431
BRANCH_RETURN: 0.0161

LLC TOTAL        ACCESS:     511119 HIT:     198093 MISS:     313026
LLC LOAD         ACCESS:     376162 HIT:      97232 MISS:     278930
LLC RFO          ACCESS:      32895 HIT:      12191 MISS:      20704
LLC PREFETCH     ACCESS:          0 HIT:          0 MISS:          0
LLC WRITE        ACCESS:      83971 HIT:      82626 MISS:       1345
LLC TRANSLATION  ACCESS:      18091 HIT:       6044 MISS:      12047
LLC PREFETCH REQUESTED:          0 ISSUED:          0 USEFUL:          0 USELESS:          0
LLC AVERAGE MISS LATENCY: 548.3 cycles
cpu0_DTLB TOTAL        ACCESS:  146470582 HIT:  145167918 MISS:    1302664
cpu0_DTLB LOAD         ACCESS:  146470582 HIT:  145167918 MISS:    1302664
cpu0_DTLB RFO          ACCESS:          0 HIT:          0 MISS:          0
cpu0_DTLB PREFETCH     ACCESS:          0 HIT:          0 MISS:          0
cpu0_DTLB WRITE        ACCESS:          0 HIT:          0 MISS:          0
cpu0_DTLB TRANSLATION  ACCESS:          0 HIT:          0 MISS:          0
cpu0_DTLB PREFETCH REQUESTED:          0 ISSUED:          0 USEFUL:          0 USELESS:          0
cpu0_DTLB AVERAGE MISS LATENCY: 11.96 cycles
cpu0_ITLB TOTAL        ACCESS:    8990381 HIT:    8805649 MISS:     184732
cpu0_ITLB LOAD         ACCESS:    8990381 HIT:    8805649 MISS:     184732
cpu0_ITLB RFO          ACCESS:          0 HIT:          0 MISS:          0
cpu0_ITLB PREFETCH     ACCESS:          0 HIT:          0 MISS:          0
cpu0_ITLB WRITE        ACCESS:          0 HIT:          0 MISS:          0
cpu0_ITLB TRANSLATION  ACCESS:          0 HIT:          0 MISS:          0
cpu0_ITLB PREFETCH REQUESTED:          0 ISSUED:          0 USEFUL:          0 USELESS:          0
cpu0_ITLB AVERAGE MISS LATENCY: 3.566 cycles
cpu0_L1D TOTAL        ACCESS:  193282447 HIT:  190432135 MISS:    2850312
cpu0_L1D LOAD         ACCESS:  107435310 HIT:  105089022 MISS:    2346288
cpu0_L1D RFO          ACCESS:          0 HIT:          0 MISS:          0
cpu0_L1D PREFETCH     ACCESS:          0 HIT:          0 MISS:          0
cpu0_L1D WRITE        ACCESS:   85818607 HIT:   85341092 MISS:     477515
cpu0_L1D TRANSLATION  ACCESS:      28530 HIT:       2021 MISS:      26509
cpu0_L1D PREFETCH REQUESTED:          0 ISSUED:          0 USEFUL:          0 USELESS:          0
cpu0_L1D AVERAGE MISS LATENCY: 63.53 cycles
cpu0_L1I TOTAL        ACCESS:   10424219 HIT:    8660643 MISS:    1763576
cpu0_L1I LOAD         ACCESS:   10424219 HIT:    8660643 MISS:    1763576
cpu0_L1I RFO          ACCESS:          0 HIT:          0 MISS:          0
cpu0_L1I PREFETCH     ACCESS:          0 HIT:          0 MISS:          0
cpu0_L1I WRITE        ACCESS:          0 HIT:          0 MISS:          0
cpu0_L1I TRANSLATION  ACCESS:          0 HIT:          0 MISS:          0
cpu0_L1I PREFETCH REQUESTED:          0 ISSUED:          0 USEFUL:          0 USELESS:          0
cpu0_L1I AVERAGE MISS LATENCY: 11.5 cycles
cpu0_L2C TOTAL        ACCESS:    3232429 HIT:    2804371 MISS:     428058
cpu0_L2C LOAD         ACCESS:    2710115 HIT:    2333953 MISS:     376162
cpu0_L2C RFO          ACCESS:     133283 HIT:     100388 MISS:      32895
cpu0_L2C PREFETCH     ACCESS:          0 HIT:          0 MISS:          0
cpu0_L2C WRITE        ACCESS:     362588 HIT:     361678 MISS:        910
cpu0_L2C TRANSLATION  ACCESS:      26443 HIT:       8352 MISS:      18091
cpu0_L2C PREFETCH REQUESTED:          0 ISSUED:          0 USEFUL:          0 USELESS:          0
cpu0_L2C AVERAGE MISS LATENCY: 421.6 cycles
cpu0_STLB TOTAL        ACCESS:    1008345 HIT:     981649 MISS:      26696
cpu0_STLB LOAD         ACCESS:    1008345 HIT:     981649 MISS:      26696
cpu0_STLB RFO          ACCESS:          0 HIT:          0 MISS:          0
cpu0_STLB PREFETCH     ACCESS:          0 HIT:          0 MISS:          0
cpu0_STLB WRITE        ACCESS:          0 HIT:          0 MISS:          0
cpu0_STLB TRANSLATION  ACCESS:          0 HIT:          0 MISS:          0
cpu0_STLB PREFETCH REQUESTED:          0 ISSUED:          0 USEFUL:          0 USELESS:          0
cpu0_STLB AVERAGE MISS LATENCY: 366.3 cycles

DRAM Statistics

Channel 0 RQ ROW_BUFFER_HIT:      55302
  ROW_BUFFER_MISS:     256327
 AVG DBUS CONGESTED CYCLE: 3.805
WQ ROW_BUFFER_HIT: Channel 0 
  ROW_BUFFER_MISS:       8666
  FULL:      40464
