WARNING: physical memory size is smaller than virtual memory size.

*** ChampSim Multicore Out-of-Order Simulator ***
Warmup Instructions: 50000000
Simulation Instructions: 600000000
Number of CPUs: 1
Page size: 4096

Off-chip DRAM Size: 4 GiB Channels: 1 Width: 64-bit Data Race: 3200 MT/s
Heartbeat CPU 0 instructions: 10000001 cycles: 2500319 heartbeat IPC: 3.999 cumulative IPC: 3.999 (Simulation time: 00 hr 00 min 43 sec)
Heartbeat CPU 0 instructions: 20000002 cycles: 5037092 heartbeat IPC: 3.942 cumulative IPC: 3.971 (Simulation time: 00 hr 02 min 11 sec)
Heartbeat CPU 0 instructions: 30000002 cycles: 7537092 heartbeat IPC: 4 cumulative IPC: 3.98 (Simulation time: 00 hr 04 min 04 sec)
Heartbeat CPU 0 instructions: 40000002 cycles: 10037092 heartbeat IPC: 4 cumulative IPC: 3.985 (Simulation time: 00 hr 06 min 53 sec)
Heartbeat CPU 0 instructions: 50000002 cycles: 12537092 heartbeat IPC: 4 cumulative IPC: 3.988 (Simulation time: 00 hr 10 min 20 sec)
Warmup finished CPU 0 instructions: 50000002 cycles: 12537093 cumulative IPC: 3.988 (Simulation time: 00 hr 10 min 20 sec)
Warmup complete CPU 0 instructions: 50000002 cycles: 12537093 cumulative IPC: 3.988 (Simulation time: 00 hr 10 min 20 sec)
Heartbeat CPU 0 instructions: 60000000 cycles: 17767960 heartbeat IPC: 1.912 cumulative IPC: 1.912 (Simulation time: 00 hr 15 min 44 sec)
Heartbeat CPU 0 instructions: 70000002 cycles: 22707388 heartbeat IPC: 2.025 cumulative IPC: 1.967 (Simulation time: 00 hr 20 min 57 sec)
Heartbeat CPU 0 instructions: 80000001 cycles: 28107749 heartbeat IPC: 1.852 cumulative IPC: 1.927 (Simulation time: 00 hr 26 min 26 sec)
Heartbeat CPU 0 instructions: 90000001 cycles: 33004686 heartbeat IPC: 2.042 cumulative IPC: 1.954 (Simulation time: 00 hr 31 min 40 sec)
Heartbeat CPU 0 instructions: 100000000 cycles: 38146912 heartbeat IPC: 1.945 cumulative IPC: 1.952 (Simulation time: 00 hr 37 min 02 sec)
Heartbeat CPU 0 instructions: 110000000 cycles: 43039100 heartbeat IPC: 2.044 cumulative IPC: 1.967 (Simulation time: 00 hr 42 min 14 sec)
Heartbeat CPU 0 instructions: 120000001 cycles: 48248610 heartbeat IPC: 1.92 cumulative IPC: 1.96 (Simulation time: 00 hr 47 min 39 sec)
Heartbeat CPU 0 instructions: 130000001 cycles: 53420961 heartbeat IPC: 1.933 cumulative IPC: 1.957 (Simulation time: 00 hr 53 min 02 sec)
Heartbeat CPU 0 instructions: 140000001 cycles: 58738657 heartbeat IPC: 1.881 cumulative IPC: 1.948 (Simulation time: 00 hr 58 min 37 sec)
Heartbeat CPU 0 instructions: 150000001 cycles: 64071577 heartbeat IPC: 1.875 cumulative IPC: 1.94 (Simulation time: 01 hr 04 min 05 sec)
Heartbeat CPU 0 instructions: 160000004 cycles: 69278061 heartbeat IPC: 1.921 cumulative IPC: 1.939 (Simulation time: 01 hr 09 min 28 sec)
Heartbeat CPU 0 instructions: 170000000 cycles: 79701858 heartbeat IPC: 0.9593 cumulative IPC: 1.787 (Simulation time: 01 hr 18 min 22 sec)
Heartbeat CPU 0 instructions: 180000004 cycles: 90598605 heartbeat IPC: 0.9177 cumulative IPC: 1.665 (Simulation time: 01 hr 27 min 48 sec)
Heartbeat CPU 0 instructions: 190000001 cycles: 101462472 heartbeat IPC: 0.9205 cumulative IPC: 1.574 (Simulation time: 01 hr 37 min 06 sec)
Heartbeat CPU 0 instructions: 200000003 cycles: 106270244 heartbeat IPC: 2.08 cumulative IPC: 1.6 (Simulation time: 01 hr 42 min 20 sec)
Heartbeat CPU 0 instructions: 210000001 cycles: 111211136 heartbeat IPC: 2.024 cumulative IPC: 1.622 (Simulation time: 01 hr 47 min 40 sec)
Heartbeat CPU 0 instructions: 220000000 cycles: 116051260 heartbeat IPC: 2.066 cumulative IPC: 1.642 (Simulation time: 01 hr 52 min 52 sec)
Heartbeat CPU 0 instructions: 230000002 cycles: 121431249 heartbeat IPC: 1.859 cumulative IPC: 1.653 (Simulation time: 01 hr 58 min 16 sec)
Heartbeat CPU 0 instructions: 240000000 cycles: 126317032 heartbeat IPC: 2.047 cumulative IPC: 1.67 (Simulation time: 02 hr 03 min 33 sec)
Heartbeat CPU 0 instructions: 250000000 cycles: 131501876 heartbeat IPC: 1.929 cumulative IPC: 1.681 (Simulation time: 02 hr 08 min 56 sec)
Heartbeat CPU 0 instructions: 260000000 cycles: 136554225 heartbeat IPC: 1.979 cumulative IPC: 1.693 (Simulation time: 02 hr 14 min 15 sec)
Heartbeat CPU 0 instructions: 270000002 cycles: 141464198 heartbeat IPC: 2.037 cumulative IPC: 1.706 (Simulation time: 02 hr 19 min 30 sec)
Heartbeat CPU 0 instructions: 280000002 cycles: 146383095 heartbeat IPC: 2.033 cumulative IPC: 1.718 (Simulation time: 02 hr 24 min 44 sec)
Heartbeat CPU 0 instructions: 290000001 cycles: 151766135 heartbeat IPC: 1.858 cumulative IPC: 1.724 (Simulation time: 02 hr 30 min 14 sec)
Heartbeat CPU 0 instructions: 300000003 cycles: 156852895 heartbeat IPC: 1.966 cumulative IPC: 1.732 (Simulation time: 02 hr 35 min 39 sec)
Heartbeat CPU 0 instructions: 310000001 cycles: 162158907 heartbeat IPC: 1.885 cumulative IPC: 1.738 (Simulation time: 02 hr 41 min 09 sec)
Heartbeat CPU 0 instructions: 320000003 cycles: 167379973 heartbeat IPC: 1.915 cumulative IPC: 1.744 (Simulation time: 02 hr 46 min 35 sec)
Heartbeat CPU 0 instructions: 330000003 cycles: 172681016 heartbeat IPC: 1.886 cumulative IPC: 1.748 (Simulation time: 02 hr 51 min 58 sec)
Heartbeat CPU 0 instructions: 340000000 cycles: 183296012 heartbeat IPC: 0.9421 cumulative IPC: 1.698 (Simulation time: 03 hr 00 min 58 sec)
Heartbeat CPU 0 instructions: 350000000 cycles: 194544216 heartbeat IPC: 0.889 cumulative IPC: 1.648 (Simulation time: 03 hr 10 min 31 sec)
Heartbeat CPU 0 instructions: 360000004 cycles: 205386802 heartbeat IPC: 0.9223 cumulative IPC: 1.607 (Simulation time: 03 hr 19 min 45 sec)
Heartbeat CPU 0 instructions: 370000000 cycles: 209811659 heartbeat IPC: 2.26 cumulative IPC: 1.622 (Simulation time: 03 hr 24 min 42 sec)
Heartbeat CPU 0 instructions: 380000001 cycles: 214756380 heartbeat IPC: 2.022 cumulative IPC: 1.632 (Simulation time: 03 hr 30 min 01 sec)
Heartbeat CPU 0 instructions: 390000002 cycles: 219595474 heartbeat IPC: 2.067 cumulative IPC: 1.642 (Simulation time: 03 hr 35 min 14 sec)
Heartbeat CPU 0 instructions: 400000004 cycles: 224532984 heartbeat IPC: 2.025 cumulative IPC: 1.651 (Simulation time: 03 hr 40 min 30 sec)
Heartbeat CPU 0 instructions: 410000000 cycles: 229287427 heartbeat IPC: 2.103 cumulative IPC: 1.661 (Simulation time: 03 hr 45 min 41 sec)
Heartbeat CPU 0 instructions: 420000000 cycles: 234530674 heartbeat IPC: 1.907 cumulative IPC: 1.667 (Simulation time: 03 hr 51 min 17 sec)
Heartbeat CPU 0 instructions: 430000001 cycles: 239022419 heartbeat IPC: 2.226 cumulative IPC: 1.678 (Simulation time: 03 hr 56 min 21 sec)
Heartbeat CPU 0 instructions: 440000000 cycles: 244404445 heartbeat IPC: 1.858 cumulative IPC: 1.682 (Simulation time: 04 hr 01 min 51 sec)
Heartbeat CPU 0 instructions: 450000002 cycles: 249079934 heartbeat IPC: 2.139 cumulative IPC: 1.691 (Simulation time: 04 hr 06 min 55 sec)
Heartbeat CPU 0 instructions: 460000000 cycles: 253885821 heartbeat IPC: 2.081 cumulative IPC: 1.699 (Simulation time: 04 hr 12 min 04 sec)
Heartbeat CPU 0 instructions: 470000000 cycles: 258878299 heartbeat IPC: 2.003 cumulative IPC: 1.705 (Simulation time: 04 hr 17 min 24 sec)
Heartbeat CPU 0 instructions: 480000003 cycles: 263673998 heartbeat IPC: 2.085 cumulative IPC: 1.712 (Simulation time: 04 hr 22 min 31 sec)
Heartbeat CPU 0 instructions: 490000000 cycles: 268287845 heartbeat IPC: 2.167 cumulative IPC: 1.72 (Simulation time: 04 hr 27 min 43 sec)
Heartbeat CPU 0 instructions: 500000000 cycles: 273315255 heartbeat IPC: 1.989 cumulative IPC: 1.726 (Simulation time: 04 hr 33 min 02 sec)
Heartbeat CPU 0 instructions: 510000003 cycles: 278964021 heartbeat IPC: 1.77 cumulative IPC: 1.727 (Simulation time: 04 hr 38 min 42 sec)
Heartbeat CPU 0 instructions: 520000001 cycles: 283657242 heartbeat IPC: 2.131 cumulative IPC: 1.734 (Simulation time: 04 hr 43 min 53 sec)
Heartbeat CPU 0 instructions: 530000002 cycles: 288797928 heartbeat IPC: 1.945 cumulative IPC: 1.737 (Simulation time: 04 hr 49 min 18 sec)
Heartbeat CPU 0 instructions: 540000000 cycles: 293917078 heartbeat IPC: 1.953 cumulative IPC: 1.741 (Simulation time: 04 hr 54 min 38 sec)
Heartbeat CPU 0 instructions: 550000001 cycles: 298721646 heartbeat IPC: 2.081 cumulative IPC: 1.747 (Simulation time: 04 hr 59 min 46 sec)
Heartbeat CPU 0 instructions: 560000000 cycles: 303941117 heartbeat IPC: 1.916 cumulative IPC: 1.75 (Simulation time: 05 hr 05 min 05 sec)
Heartbeat CPU 0 instructions: 570000004 cycles: 311308910 heartbeat IPC: 1.357 cumulative IPC: 1.74 (Simulation time: 05 hr 12 min 00 sec)
Heartbeat CPU 0 instructions: 580000003 cycles: 323327799 heartbeat IPC: 0.832 cumulative IPC: 1.705 (Simulation time: 05 hr 22 min 11 sec)
Heartbeat CPU 0 instructions: 590000002 cycles: 336982438 heartbeat IPC: 0.7324 cumulative IPC: 1.664 (Simulation time: 05 hr 33 min 21 sec)
Heartbeat CPU 0 instructions: 600000000 cycles: 341595643 heartbeat IPC: 2.168 cumulative IPC: 1.671 (Simulation time: 05 hr 38 min 28 sec)
Heartbeat CPU 0 instructions: 610000002 cycles: 346112608 heartbeat IPC: 2.214 cumulative IPC: 1.679 (Simulation time: 05 hr 43 min 31 sec)
Heartbeat CPU 0 instructions: 620000000 cycles: 350930871 heartbeat IPC: 2.075 cumulative IPC: 1.684 (Simulation time: 05 hr 48 min 43 sec)
Heartbeat CPU 0 instructions: 630000002 cycles: 356032507 heartbeat IPC: 1.96 cumulative IPC: 1.689 (Simulation time: 05 hr 54 min 14 sec)
Heartbeat CPU 0 instructions: 640000001 cycles: 360884078 heartbeat IPC: 2.061 cumulative IPC: 1.694 (Simulation time: 05 hr 59 min 29 sec)
Heartbeat CPU 0 instructions: 650000000 cycles: 365438928 heartbeat IPC: 2.195 cumulative IPC: 1.7 (Simulation time: 06 hr 04 min 47 sec)
Simulation finished CPU 0 instructions: 600000001 cycles: 352901837 cumulative IPC: 1.7 (Simulation time: 06 hr 04 min 47 sec)
Simulation complete CPU 0 instructions: 600000001 cycles: 352901837 cumulative IPC: 1.7 (Simulation time: 06 hr 04 min 47 sec)

ChampSim completed all CPUs

=== Simulation ===
CPU 0 runs traces/400.perlbench-41B.champsimtrace.xz
Region of Interest Statistics

CPU 0 cumulative IPC: 1.7 instructions: 600000001 cycles: 352901837
CPU 0 Branch Prediction Accuracy: 93.95% MPKI: 12.5 Average ROB Occupancy at Mispredict: 29.6
Branch type MPKI
BRANCH_DIRECT_JUMP: 0.0123
BRANCH_INDIRECT: 0.323
BRANCH_CONDITIONAL: 12
BRANCH_DIRECT_CALL: 0.0043
BRANCH_INDIRECT_CALL: 0.2
BRANCH_RETURN: 0.00828

LLC TOTAL        ACCESS:     674721 HIT:     230139 MISS:     444582
LLC LOAD         ACCESS:     308205 HIT:     124155 MISS:     184050
LLC RFO          ACCESS:      25077 HIT:       8482 MISS:      16595
LLC PREFETCH     ACCESS:     261778 HIT:      31418 MISS:     230360
LLC WRITE        ACCESS:      64104 HIT:      61782 MISS:       2322
LLC TRANSLATION  ACCESS:      15557 HIT:       4302 MISS:      11255
LLC PREFETCH REQUESTED:     261778 ISSUED:     261778 USEFUL:      86391 USELESS:     125631
LLC AVERAGE MISS LATENCY: 736.2 cycles
cpu0_DTLB TOTAL        ACCESS:  153650913 HIT:  152974451 MISS:     676462
cpu0_DTLB LOAD         ACCESS:  153650913 HIT:  152974451 MISS:     676462
cpu0_DTLB RFO          ACCESS:          0 HIT:          0 MISS:          0
cpu0_DTLB PREFETCH     ACCESS:          0 HIT:          0 MISS:          0
cpu0_DTLB WRITE        ACCESS:          0 HIT:          0 MISS:          0
cpu0_DTLB TRANSLATION  ACCESS:          0 HIT:          0 MISS:          0
cpu0_DTLB PREFETCH REQUESTED:          0 ISSUED:          0 USEFUL:          0 USELESS:          0
cpu0_DTLB AVERAGE MISS LATENCY: 18.53 cycles
cpu0_ITLB TOTAL        ACCESS:    4835458 HIT:    4777414 MISS:      58044
cpu0_ITLB LOAD         ACCESS:    4835458 HIT:    4777414 MISS:      58044
cpu0_ITLB RFO          ACCESS:          0 HIT:          0 MISS:          0
cpu0_ITLB PREFETCH     ACCESS:          0 HIT:          0 MISS:          0
cpu0_ITLB WRITE        ACCESS:          0 HIT:          0 MISS:          0
cpu0_ITLB TRANSLATION  ACCESS:          0 HIT:          0 MISS:          0
cpu0_ITLB PREFETCH REQUESTED:          0 ISSUED:          0 USEFUL:          0 USELESS:          0
cpu0_ITLB AVERAGE MISS LATENCY: 8.371 cycles
cpu0_L1D TOTAL        ACCESS:  200280837 HIT:  198948415 MISS:    1332422
cpu0_L1D LOAD         ACCESS:  117036892 HIT:  116016369 MISS:    1020523
cpu0_L1D RFO          ACCESS:          0 HIT:          0 MISS:          0
cpu0_L1D PREFETCH     ACCESS:          0 HIT:          0 MISS:          0
cpu0_L1D WRITE        ACCESS:   83219481 HIT:   82930467 MISS:     289014
cpu0_L1D TRANSLATION  ACCESS:      24464 HIT:       1579 MISS:      22885
cpu0_L1D PREFETCH REQUESTED:          0 ISSUED:          0 USEFUL:          0 USELESS:          0
cpu0_L1D AVERAGE MISS LATENCY: 109.9 cycles
cpu0_L1I TOTAL        ACCESS:    5577525 HIT:    4815330 MISS:     762195
cpu0_L1I LOAD         ACCESS:    5577525 HIT:    4815330 MISS:     762195
cpu0_L1I RFO          ACCESS:          0 HIT:          0 MISS:          0
cpu0_L1I PREFETCH     ACCESS:          0 HIT:          0 MISS:          0
cpu0_L1I WRITE        ACCESS:          0 HIT:          0 MISS:          0
cpu0_L1I TRANSLATION  ACCESS:          0 HIT:          0 MISS:          0
cpu0_L1I PREFETCH REQUESTED:          0 ISSUED:          0 USEFUL:          0 USELESS:          0
cpu0_L1I AVERAGE MISS LATENCY: 16.76 cycles
cpu0_L2C TOTAL        ACCESS:    1382454 HIT:    1032811 MISS:     349643
cpu0_L2C LOAD         ACCESS:    1125652 HIT:     817447 MISS:     308205
cpu0_L2C RFO          ACCESS:      63920 HIT:      38843 MISS:      25077
cpu0_L2C PREFETCH     ACCESS:          0 HIT:          0 MISS:          0
cpu0_L2C WRITE        ACCESS:     170076 HIT:     169272 MISS:        804
cpu0_L2C TRANSLATION  ACCESS:      22806 HIT:       7249 MISS:      15557
cpu0_L2C PREFETCH REQUESTED:          0 ISSUED:          0 USEFUL:          0 USELESS:          0
cpu0_L2C AVERAGE MISS LATENCY: 432.5 cycles
cpu0_STLB TOTAL        ACCESS:     505153 HIT:     482362 MISS:      22791
cpu0_STLB LOAD         ACCESS:     505153 HIT:     482362 MISS:      22791
cpu0_STLB RFO          ACCESS:          0 HIT:          0 MISS:          0
cpu0_STLB PREFETCH     ACCESS:          0 HIT:          0 MISS:          0
cpu0_STLB WRITE        ACCESS:          0 HIT:          0 MISS:          0
cpu0_STLB TRANSLATION  ACCESS:          0 HIT:          0 MISS:          0
cpu0_STLB PREFETCH REQUESTED:          0 ISSUED:          0 USEFUL:          0 USELESS:          0
cpu0_STLB AVERAGE MISS LATENCY: 433.1 cycles

DRAM Statistics

Channel 0 RQ ROW_BUFFER_HIT:     145198
  ROW_BUFFER_MISS:     284769
 AVG DBUS CONGESTED CYCLE: 3.908
WQ ROW_BUFFER_HIT: Channel 0 
  ROW_BUFFER_MISS:       4743
  FULL:      44754
