WARNING: physical memory size is smaller than virtual memory size.

*** ChampSim Multicore Out-of-Order Simulator ***
Warmup Instructions: 50000000
Simulation Instructions: 600000000
Number of CPUs: 1
Page size: 4096

Off-chip DRAM Size: 4 GiB Channels: 1 Width: 64-bit Data Race: 3200 MT/s
Heartbeat CPU 0 instructions: 10000000 cycles: 2500061 heartbeat IPC: 4 cumulative IPC: 4 (Simulation time: 00 hr 03 min 35 sec)
Heartbeat CPU 0 instructions: 20000000 cycles: 5000061 heartbeat IPC: 4 cumulative IPC: 4 (Simulation time: 00 hr 07 min 20 sec)
Heartbeat CPU 0 instructions: 30000000 cycles: 7500061 heartbeat IPC: 4 cumulative IPC: 4 (Simulation time: 00 hr 10 min 55 sec)
Heartbeat CPU 0 instructions: 40000000 cycles: 10000061 heartbeat IPC: 4 cumulative IPC: 4 (Simulation time: 00 hr 14 min 30 sec)
Heartbeat CPU 0 instructions: 50000000 cycles: 12500061 heartbeat IPC: 4 cumulative IPC: 4 (Simulation time: 00 hr 18 min 07 sec)
Warmup finished CPU 0 instructions: 50000000 cycles: 12500062 cumulative IPC: 4 (Simulation time: 00 hr 18 min 07 sec)
Warmup complete CPU 0 instructions: 50000000 cycles: 12500062 cumulative IPC: 4 (Simulation time: 00 hr 18 min 07 sec)
Heartbeat CPU 0 instructions: 60000004 cycles: 15566854 heartbeat IPC: 3.261 cumulative IPC: 3.261 (Simulation time: 00 hr 22 min 46 sec)
Heartbeat CPU 0 instructions: 70000003 cycles: 18652443 heartbeat IPC: 3.241 cumulative IPC: 3.251 (Simulation time: 00 hr 27 min 16 sec)
Heartbeat CPU 0 instructions: 80000001 cycles: 21826151 heartbeat IPC: 3.151 cumulative IPC: 3.217 (Simulation time: 00 hr 31 min 39 sec)
Heartbeat CPU 0 instructions: 90000000 cycles: 24602344 heartbeat IPC: 3.602 cumulative IPC: 3.305 (Simulation time: 00 hr 36 min 03 sec)
Heartbeat CPU 0 instructions: 100000003 cycles: 27517222 heartbeat IPC: 3.431 cumulative IPC: 3.33 (Simulation time: 00 hr 40 min 30 sec)
Heartbeat CPU 0 instructions: 110000000 cycles: 30554219 heartbeat IPC: 3.293 cumulative IPC: 3.323 (Simulation time: 00 hr 44 min 46 sec)
Heartbeat CPU 0 instructions: 120000001 cycles: 33390180 heartbeat IPC: 3.526 cumulative IPC: 3.351 (Simulation time: 00 hr 48 min 58 sec)
Heartbeat CPU 0 instructions: 130000003 cycles: 36365579 heartbeat IPC: 3.361 cumulative IPC: 3.352 (Simulation time: 00 hr 53 min 26 sec)
Heartbeat CPU 0 instructions: 140000002 cycles: 39342700 heartbeat IPC: 3.359 cumulative IPC: 3.353 (Simulation time: 00 hr 57 min 41 sec)
Heartbeat CPU 0 instructions: 150000001 cycles: 42256638 heartbeat IPC: 3.432 cumulative IPC: 3.361 (Simulation time: 01 hr 01 min 54 sec)
Heartbeat CPU 0 instructions: 160000000 cycles: 45239129 heartbeat IPC: 3.353 cumulative IPC: 3.36 (Simulation time: 01 hr 06 min 12 sec)
Heartbeat CPU 0 instructions: 170000001 cycles: 48286129 heartbeat IPC: 3.282 cumulative IPC: 3.353 (Simulation time: 01 hr 10 min 33 sec)
Heartbeat CPU 0 instructions: 180000000 cycles: 51140825 heartbeat IPC: 3.503 cumulative IPC: 3.364 (Simulation time: 01 hr 14 min 51 sec)
Heartbeat CPU 0 instructions: 190000002 cycles: 53958260 heartbeat IPC: 3.549 cumulative IPC: 3.377 (Simulation time: 01 hr 19 min 09 sec)
Heartbeat CPU 0 instructions: 200000002 cycles: 56918787 heartbeat IPC: 3.378 cumulative IPC: 3.377 (Simulation time: 01 hr 23 min 26 sec)
Heartbeat CPU 0 instructions: 210000000 cycles: 59883038 heartbeat IPC: 3.374 cumulative IPC: 3.377 (Simulation time: 01 hr 27 min 42 sec)
Heartbeat CPU 0 instructions: 220000001 cycles: 62782332 heartbeat IPC: 3.449 cumulative IPC: 3.381 (Simulation time: 01 hr 31 min 58 sec)
Heartbeat CPU 0 instructions: 230000002 cycles: 65790253 heartbeat IPC: 3.325 cumulative IPC: 3.378 (Simulation time: 01 hr 36 min 22 sec)
Heartbeat CPU 0 instructions: 240000004 cycles: 68892541 heartbeat IPC: 3.223 cumulative IPC: 3.369 (Simulation time: 01 hr 40 min 47 sec)
Heartbeat CPU 0 instructions: 250000003 cycles: 72033486 heartbeat IPC: 3.184 cumulative IPC: 3.359 (Simulation time: 01 hr 45 min 09 sec)
Heartbeat CPU 0 instructions: 260000000 cycles: 74933555 heartbeat IPC: 3.448 cumulative IPC: 3.364 (Simulation time: 01 hr 49 min 25 sec)
Heartbeat CPU 0 instructions: 270000002 cycles: 80777771 heartbeat IPC: 1.711 cumulative IPC: 3.222 (Simulation time: 01 hr 55 min 40 sec)
Heartbeat CPU 0 instructions: 280000000 cycles: 89989989 heartbeat IPC: 1.086 cumulative IPC: 2.968 (Simulation time: 02 hr 04 min 27 sec)
Heartbeat CPU 0 instructions: 290000000 cycles: 97538566 heartbeat IPC: 1.325 cumulative IPC: 2.822 (Simulation time: 02 hr 12 min 06 sec)
Heartbeat CPU 0 instructions: 300000003 cycles: 102835055 heartbeat IPC: 1.888 cumulative IPC: 2.767 (Simulation time: 02 hr 18 min 25 sec)
Heartbeat CPU 0 instructions: 310000004 cycles: 111598436 heartbeat IPC: 1.141 cumulative IPC: 2.624 (Simulation time: 02 hr 27 min 09 sec)
Heartbeat CPU 0 instructions: 320000004 cycles: 115528455 heartbeat IPC: 2.545 cumulative IPC: 2.621 (Simulation time: 02 hr 32 min 22 sec)
Heartbeat CPU 0 instructions: 330000000 cycles: 118808820 heartbeat IPC: 3.048 cumulative IPC: 2.634 (Simulation time: 02 hr 37 min 05 sec)
Heartbeat CPU 0 instructions: 340000001 cycles: 122120163 heartbeat IPC: 3.02 cumulative IPC: 2.646 (Simulation time: 02 hr 41 min 42 sec)
Heartbeat CPU 0 instructions: 350000000 cycles: 125568134 heartbeat IPC: 2.9 cumulative IPC: 2.653 (Simulation time: 02 hr 46 min 30 sec)
Heartbeat CPU 0 instructions: 360000003 cycles: 128833281 heartbeat IPC: 3.063 cumulative IPC: 2.665 (Simulation time: 02 hr 51 min 11 sec)
Heartbeat CPU 0 instructions: 370000001 cycles: 132013295 heartbeat IPC: 3.145 cumulative IPC: 2.678 (Simulation time: 02 hr 55 min 45 sec)
Heartbeat CPU 0 instructions: 380000004 cycles: 135201515 heartbeat IPC: 3.137 cumulative IPC: 2.689 (Simulation time: 03 hr 00 min 21 sec)
Heartbeat CPU 0 instructions: 390000002 cycles: 138573838 heartbeat IPC: 2.965 cumulative IPC: 2.697 (Simulation time: 03 hr 05 min 06 sec)
Heartbeat CPU 0 instructions: 400000000 cycles: 142018158 heartbeat IPC: 2.903 cumulative IPC: 2.702 (Simulation time: 03 hr 09 min 52 sec)
Heartbeat CPU 0 instructions: 410000000 cycles: 148257684 heartbeat IPC: 1.603 cumulative IPC: 2.652 (Simulation time: 03 hr 16 min 33 sec)
Heartbeat CPU 0 instructions: 420000003 cycles: 157106461 heartbeat IPC: 1.13 cumulative IPC: 2.559 (Simulation time: 03 hr 25 min 11 sec)
Heartbeat CPU 0 instructions: 430000004 cycles: 162763376 heartbeat IPC: 1.768 cumulative IPC: 2.529 (Simulation time: 03 hr 31 min 49 sec)
Heartbeat CPU 0 instructions: 440000004 cycles: 167683177 heartbeat IPC: 2.033 cumulative IPC: 2.513 (Simulation time: 03 hr 37 min 53 sec)
Heartbeat CPU 0 instructions: 450000000 cycles: 172426403 heartbeat IPC: 2.108 cumulative IPC: 2.501 (Simulation time: 03 hr 43 min 44 sec)
Heartbeat CPU 0 instructions: 460000002 cycles: 180957347 heartbeat IPC: 1.172 cumulative IPC: 2.434 (Simulation time: 03 hr 52 min 11 sec)
Heartbeat CPU 0 instructions: 470000003 cycles: 188896286 heartbeat IPC: 1.26 cumulative IPC: 2.381 (Simulation time: 04 hr 00 min 04 sec)
Heartbeat CPU 0 instructions: 480000000 cycles: 192451343 heartbeat IPC: 2.813 cumulative IPC: 2.39 (Simulation time: 04 hr 04 min 55 sec)
Heartbeat CPU 0 instructions: 490000001 cycles: 196205367 heartbeat IPC: 2.664 cumulative IPC: 2.395 (Simulation time: 04 hr 09 min 51 sec)
Heartbeat CPU 0 instructions: 500000002 cycles: 199818342 heartbeat IPC: 2.768 cumulative IPC: 2.402 (Simulation time: 04 hr 14 min 43 sec)
Heartbeat CPU 0 instructions: 510000000 cycles: 203384476 heartbeat IPC: 2.804 cumulative IPC: 2.41 (Simulation time: 04 hr 19 min 32 sec)
Heartbeat CPU 0 instructions: 520000000 cycles: 207025546 heartbeat IPC: 2.746 cumulative IPC: 2.416 (Simulation time: 04 hr 24 min 26 sec)
Heartbeat CPU 0 instructions: 530000001 cycles: 215981008 heartbeat IPC: 1.117 cumulative IPC: 2.359 (Simulation time: 04 hr 32 min 57 sec)
Heartbeat CPU 0 instructions: 540000000 cycles: 224788458 heartbeat IPC: 1.135 cumulative IPC: 2.308 (Simulation time: 04 hr 41 min 39 sec)
Heartbeat CPU 0 instructions: 550000004 cycles: 235006572 heartbeat IPC: 0.9787 cumulative IPC: 2.247 (Simulation time: 04 hr 51 min 08 sec)
Heartbeat CPU 0 instructions: 560000004 cycles: 238744202 heartbeat IPC: 2.675 cumulative IPC: 2.254 (Simulation time: 04 hr 55 min 58 sec)
Heartbeat CPU 0 instructions: 570000002 cycles: 241589470 heartbeat IPC: 3.515 cumulative IPC: 2.27 (Simulation time: 05 hr 00 min 18 sec)
Heartbeat CPU 0 instructions: 580000000 cycles: 244580945 heartbeat IPC: 3.343 cumulative IPC: 2.284 (Simulation time: 05 hr 04 min 38 sec)
Heartbeat CPU 0 instructions: 590000001 cycles: 247571757 heartbeat IPC: 3.344 cumulative IPC: 2.297 (Simulation time: 05 hr 08 min 59 sec)
Heartbeat CPU 0 instructions: 600000003 cycles: 250317304 heartbeat IPC: 3.642 cumulative IPC: 2.313 (Simulation time: 05 hr 13 min 14 sec)
Heartbeat CPU 0 instructions: 610000001 cycles: 253264104 heartbeat IPC: 3.394 cumulative IPC: 2.326 (Simulation time: 05 hr 17 min 37 sec)
Heartbeat CPU 0 instructions: 620000002 cycles: 256291930 heartbeat IPC: 3.303 cumulative IPC: 2.338 (Simulation time: 05 hr 22 min 01 sec)
Heartbeat CPU 0 instructions: 630000002 cycles: 259174541 heartbeat IPC: 3.469 cumulative IPC: 2.351 (Simulation time: 05 hr 26 min 23 sec)
Heartbeat CPU 0 instructions: 640000004 cycles: 262264771 heartbeat IPC: 3.236 cumulative IPC: 2.362 (Simulation time: 05 hr 30 min 49 sec)
Heartbeat CPU 0 instructions: 650000001 cycles: 265019809 heartbeat IPC: 3.63 cumulative IPC: 2.376 (Simulation time: 05 hr 35 min 09 sec)
Simulation finished CPU 0 instructions: 600000001 cycles: 252519748 cumulative IPC: 2.376 (Simulation time: 05 hr 35 min 09 sec)
Simulation complete CPU 0 instructions: 600000001 cycles: 252519748 cumulative IPC: 2.376 (Simulation time: 05 hr 35 min 09 sec)

ChampSim completed all CPUs

=== Simulation ===
CPU 0 runs traces/400.perlbench-50B.champsimtrace.xz
Region of Interest Statistics

CPU 0 cumulative IPC: 2.376 instructions: 600000001 cycles: 252519748
CPU 0 Branch Prediction Accuracy: 98.73% MPKI: 2.62 Average ROB Occupancy at Mispredict: 85.48
Branch type MPKI
BRANCH_DIRECT_JUMP: 0.0176
BRANCH_INDIRECT: 0.38
BRANCH_CONDITIONAL: 1.77
BRANCH_DIRECT_CALL: 0.0067
BRANCH_INDIRECT_CALL: 0.431
BRANCH_RETURN: 0.0161

LLC TOTAL        ACCESS:     890681 HIT:     384988 MISS:     505693
LLC LOAD         ACCESS:     377889 HIT:     149468 MISS:     228421
LLC RFO          ACCESS:      32705 HIT:      12391 MISS:      20314
LLC PREFETCH     ACCESS:     377889 HIT:     135799 MISS:     242090
LLC WRITE        ACCESS:      84016 HIT:      81872 MISS:       2144
LLC TRANSLATION  ACCESS:      18182 HIT:       5458 MISS:      12724
LLC PREFETCH REQUESTED:     377889 ISSUED:     377889 USEFUL:      90978 USELESS:      84460
LLC AVERAGE MISS LATENCY: 629.8 cycles
cpu0_DTLB TOTAL        ACCESS:  134605734 HIT:  133257838 MISS:    1347896
cpu0_DTLB LOAD         ACCESS:  134605734 HIT:  133257838 MISS:    1347896
cpu0_DTLB RFO          ACCESS:          0 HIT:          0 MISS:          0
cpu0_DTLB PREFETCH     ACCESS:          0 HIT:          0 MISS:          0
cpu0_DTLB WRITE        ACCESS:          0 HIT:          0 MISS:          0
cpu0_DTLB TRANSLATION  ACCESS:          0 HIT:          0 MISS:          0
cpu0_DTLB PREFETCH REQUESTED:          0 ISSUED:          0 USEFUL:          0 USELESS:          0
cpu0_DTLB AVERAGE MISS LATENCY: 12.95 cycles
cpu0_ITLB TOTAL        ACCESS:    8975209 HIT:    8767118 MISS:     208091
cpu0_ITLB LOAD         ACCESS:    8975209 HIT:    8767118 MISS:     208091
cpu0_ITLB RFO          ACCESS:          0 HIT:          0 MISS:          0
cpu0_ITLB PREFETCH     ACCESS:          0 HIT:          0 MISS:          0
cpu0_ITLB WRITE        ACCESS:          0 HIT:          0 MISS:          0
cpu0_ITLB TRANSLATION  ACCESS:          0 HIT:          0 MISS:          0
cpu0_ITLB PREFETCH REQUESTED:          0 ISSUED:          0 USEFUL:          0 USELESS:          0
cpu0_ITLB AVERAGE MISS LATENCY: 3.35 cycles
cpu0_L1D TOTAL        ACCESS:  180694222 HIT:  177763068 MISS:    2931154
cpu0_L1D LOAD         ACCESS:   95138061 HIT:   92732016 MISS:    2406045
cpu0_L1D RFO          ACCESS:          0 HIT:          0 MISS:          0
cpu0_L1D PREFETCH     ACCESS:          0 HIT:          0 MISS:          0
cpu0_L1D WRITE        ACCESS:   85527634 HIT:   85029041 MISS:     498593
cpu0_L1D TRANSLATION  ACCESS:      28527 HIT:       2011 MISS:      26516
cpu0_L1D PREFETCH REQUESTED:          0 ISSUED:          0 USEFUL:          0 USELESS:          0
cpu0_L1D AVERAGE MISS LATENCY: 63.86 cycles
cpu0_L1I TOTAL        ACCESS:   10490291 HIT:    8600103 MISS:    1890188
cpu0_L1I LOAD         ACCESS:   10490291 HIT:    8600103 MISS:    1890188
cpu0_L1I RFO          ACCESS:          0 HIT:          0 MISS:          0
cpu0_L1I PREFETCH     ACCESS:          0 HIT:          0 MISS:          0
cpu0_L1I WRITE        ACCESS:          0 HIT:          0 MISS:          0
cpu0_L1I TRANSLATION  ACCESS:          0 HIT:          0 MISS:          0
cpu0_L1I PREFETCH REQUESTED:          0 ISSUED:          0 USEFUL:          0 USELESS:          0
cpu0_L1I AVERAGE MISS LATENCY: 10.31 cycles
cpu0_L2C TOTAL        ACCESS:    3236142 HIT:    2806440 MISS:     429702
cpu0_L2C LOAD         ACCESS:    2709697 HIT:    2331808 MISS:     377889
cpu0_L2C RFO          ACCESS:     135284 HIT:     102579 MISS:      32705
cpu0_L2C PREFETCH     ACCESS:          0 HIT:          0 MISS:          0
cpu0_L2C WRITE        ACCESS:     364728 HIT:     363802 MISS:        926
cpu0_L2C TRANSLATION  ACCESS:      26433 HIT:       8251 MISS:      18182
cpu0_L2C PREFETCH REQUESTED:          0 ISSUED:          0 USEFUL:          0 USELESS:          0
cpu0_L2C AVERAGE MISS LATENCY: 446.2 cycles
cpu0_STLB TOTAL        ACCESS:    1009674 HIT:     982983 MISS:      26691
cpu0_STLB LOAD         ACCESS:    1009674 HIT:     982983 MISS:      26691
cpu0_STLB RFO          ACCESS:          0 HIT:          0 MISS:          0
cpu0_STLB PREFETCH     ACCESS:          0 HIT:          0 MISS:          0
cpu0_STLB WRITE        ACCESS:          0 HIT:          0 MISS:          0
cpu0_STLB TRANSLATION  ACCESS:          0 HIT:          0 MISS:          0
cpu0_STLB PREFETCH REQUESTED:          0 ISSUED:          0 USEFUL:          0 USELESS:          0
cpu0_STLB AVERAGE MISS LATENCY: 454.9 cycles

DRAM Statistics

Channel 0 RQ ROW_BUFFER_HIT:      87975
  ROW_BUFFER_MISS:     330150
 AVG DBUS CONGESTED CYCLE: 3.897
WQ ROW_BUFFER_HIT: Channel 0 
  ROW_BUFFER_MISS:       4712
  FULL:      49941
