WARNING: physical memory size is smaller than virtual memory size.

*** ChampSim Multicore Out-of-Order Simulator ***
Warmup Instructions: 50000000
Simulation Instructions: 600000000
Number of CPUs: 1
Page size: 4096

Off-chip DRAM Size: 4 GiB Channels: 1 Width: 64-bit Data Race: 3200 MT/s
Heartbeat CPU 0 instructions: 10000001 cycles: 2500318 heartbeat IPC: 3.999 cumulative IPC: 3.999 (Simulation time: 00 hr 03 min 59 sec)
Heartbeat CPU 0 instructions: 20000002 cycles: 5037082 heartbeat IPC: 3.942 cumulative IPC: 3.971 (Simulation time: 00 hr 07 min 54 sec)
Heartbeat CPU 0 instructions: 30000002 cycles: 7537082 heartbeat IPC: 4 cumulative IPC: 3.98 (Simulation time: 00 hr 11 min 23 sec)
Heartbeat CPU 0 instructions: 40000002 cycles: 10037082 heartbeat IPC: 4 cumulative IPC: 3.985 (Simulation time: 00 hr 14 min 57 sec)
Heartbeat CPU 0 instructions: 50000002 cycles: 12537082 heartbeat IPC: 4 cumulative IPC: 3.988 (Simulation time: 00 hr 18 min 31 sec)
Warmup finished CPU 0 instructions: 50000002 cycles: 12537083 cumulative IPC: 3.988 (Simulation time: 00 hr 18 min 31 sec)
Warmup complete CPU 0 instructions: 50000002 cycles: 12537083 cumulative IPC: 3.988 (Simulation time: 00 hr 18 min 31 sec)
Heartbeat CPU 0 instructions: 60000000 cycles: 16961490 heartbeat IPC: 2.26 cumulative IPC: 2.26 (Simulation time: 00 hr 23 min 29 sec)
Heartbeat CPU 0 instructions: 70000002 cycles: 21108046 heartbeat IPC: 2.412 cumulative IPC: 2.333 (Simulation time: 00 hr 28 min 27 sec)
Heartbeat CPU 0 instructions: 80000001 cycles: 25611957 heartbeat IPC: 2.22 cumulative IPC: 2.294 (Simulation time: 00 hr 33 min 38 sec)
Heartbeat CPU 0 instructions: 90000003 cycles: 29567531 heartbeat IPC: 2.528 cumulative IPC: 2.349 (Simulation time: 00 hr 38 min 32 sec)
Heartbeat CPU 0 instructions: 100000000 cycles: 33685523 heartbeat IPC: 2.428 cumulative IPC: 2.364 (Simulation time: 00 hr 43 min 27 sec)
Heartbeat CPU 0 instructions: 110000000 cycles: 37813401 heartbeat IPC: 2.423 cumulative IPC: 2.374 (Simulation time: 00 hr 48 min 34 sec)
Heartbeat CPU 0 instructions: 120000001 cycles: 41776364 heartbeat IPC: 2.523 cumulative IPC: 2.394 (Simulation time: 00 hr 53 min 27 sec)
Heartbeat CPU 0 instructions: 130000001 cycles: 45522534 heartbeat IPC: 2.669 cumulative IPC: 2.425 (Simulation time: 00 hr 58 min 10 sec)
Heartbeat CPU 0 instructions: 140000001 cycles: 49686990 heartbeat IPC: 2.401 cumulative IPC: 2.423 (Simulation time: 01 hr 03 min 19 sec)
Heartbeat CPU 0 instructions: 150000001 cycles: 53843161 heartbeat IPC: 2.406 cumulative IPC: 2.421 (Simulation time: 01 hr 08 min 14 sec)
Heartbeat CPU 0 instructions: 160000004 cycles: 58085169 heartbeat IPC: 2.357 cumulative IPC: 2.415 (Simulation time: 01 hr 13 min 09 sec)
Heartbeat CPU 0 instructions: 170000001 cycles: 69030686 heartbeat IPC: 0.9136 cumulative IPC: 2.124 (Simulation time: 01 hr 22 min 27 sec)
Heartbeat CPU 0 instructions: 180000004 cycles: 80775873 heartbeat IPC: 0.8514 cumulative IPC: 1.905 (Simulation time: 01 hr 32 min 30 sec)
Heartbeat CPU 0 instructions: 190000001 cycles: 91935592 heartbeat IPC: 0.8961 cumulative IPC: 1.763 (Simulation time: 01 hr 42 min 06 sec)
Heartbeat CPU 0 instructions: 200000004 cycles: 95853954 heartbeat IPC: 2.552 cumulative IPC: 1.8 (Simulation time: 01 hr 47 min 01 sec)
Heartbeat CPU 0 instructions: 210000001 cycles: 99692851 heartbeat IPC: 2.605 cumulative IPC: 1.836 (Simulation time: 01 hr 51 min 50 sec)
Heartbeat CPU 0 instructions: 220000000 cycles: 103520540 heartbeat IPC: 2.613 cumulative IPC: 1.868 (Simulation time: 01 hr 56 min 34 sec)
Heartbeat CPU 0 instructions: 230000002 cycles: 108054925 heartbeat IPC: 2.205 cumulative IPC: 1.884 (Simulation time: 02 hr 01 min 41 sec)
Heartbeat CPU 0 instructions: 240000002 cycles: 112198451 heartbeat IPC: 2.413 cumulative IPC: 1.906 (Simulation time: 02 hr 06 min 38 sec)
Heartbeat CPU 0 instructions: 250000000 cycles: 116450315 heartbeat IPC: 2.352 cumulative IPC: 1.925 (Simulation time: 02 hr 11 min 38 sec)
Heartbeat CPU 0 instructions: 260000000 cycles: 120531413 heartbeat IPC: 2.45 cumulative IPC: 1.945 (Simulation time: 02 hr 16 min 34 sec)
Heartbeat CPU 0 instructions: 270000002 cycles: 124407069 heartbeat IPC: 2.58 cumulative IPC: 1.967 (Simulation time: 02 hr 21 min 23 sec)
Heartbeat CPU 0 instructions: 280000002 cycles: 128532223 heartbeat IPC: 2.424 cumulative IPC: 1.983 (Simulation time: 02 hr 26 min 17 sec)
Heartbeat CPU 0 instructions: 290000002 cycles: 132404993 heartbeat IPC: 2.582 cumulative IPC: 2.002 (Simulation time: 02 hr 31 min 07 sec)
Heartbeat CPU 0 instructions: 300000003 cycles: 136265875 heartbeat IPC: 2.59 cumulative IPC: 2.021 (Simulation time: 02 hr 36 min 09 sec)
Heartbeat CPU 0 instructions: 310000001 cycles: 140407777 heartbeat IPC: 2.414 cumulative IPC: 2.033 (Simulation time: 02 hr 41 min 18 sec)
Heartbeat CPU 0 instructions: 320000003 cycles: 144473094 heartbeat IPC: 2.46 cumulative IPC: 2.046 (Simulation time: 02 hr 46 min 15 sec)
Heartbeat CPU 0 instructions: 330000003 cycles: 148819574 heartbeat IPC: 2.301 cumulative IPC: 2.055 (Simulation time: 02 hr 51 min 20 sec)
Heartbeat CPU 0 instructions: 340000000 cycles: 160191865 heartbeat IPC: 0.8793 cumulative IPC: 1.964 (Simulation time: 03 hr 01 min 01 sec)
Heartbeat CPU 0 instructions: 350000000 cycles: 172401217 heartbeat IPC: 0.819 cumulative IPC: 1.877 (Simulation time: 03 hr 11 min 57 sec)
Heartbeat CPU 0 instructions: 360000004 cycles: 183423255 heartbeat IPC: 0.9073 cumulative IPC: 1.814 (Simulation time: 03 hr 21 min 35 sec)
Heartbeat CPU 0 instructions: 370000001 cycles: 186907047 heartbeat IPC: 2.87 cumulative IPC: 1.835 (Simulation time: 03 hr 26 min 13 sec)
Heartbeat CPU 0 instructions: 380000001 cycles: 190328975 heartbeat IPC: 2.922 cumulative IPC: 1.856 (Simulation time: 03 hr 30 min 52 sec)
Heartbeat CPU 0 instructions: 390000004 cycles: 193915099 heartbeat IPC: 2.789 cumulative IPC: 1.875 (Simulation time: 03 hr 35 min 43 sec)
Heartbeat CPU 0 instructions: 400000004 cycles: 197473885 heartbeat IPC: 2.81 cumulative IPC: 1.893 (Simulation time: 03 hr 40 min 25 sec)
Heartbeat CPU 0 instructions: 410000001 cycles: 201233708 heartbeat IPC: 2.66 cumulative IPC: 1.908 (Simulation time: 03 hr 45 min 10 sec)
Heartbeat CPU 0 instructions: 420000002 cycles: 205375746 heartbeat IPC: 2.414 cumulative IPC: 1.919 (Simulation time: 03 hr 50 min 11 sec)
Heartbeat CPU 0 instructions: 430000001 cycles: 208980008 heartbeat IPC: 2.774 cumulative IPC: 1.934 (Simulation time: 03 hr 54 min 55 sec)
Heartbeat CPU 0 instructions: 440000004 cycles: 212926279 heartbeat IPC: 2.534 cumulative IPC: 1.946 (Simulation time: 03 hr 59 min 48 sec)
Heartbeat CPU 0 instructions: 450000002 cycles: 216443957 heartbeat IPC: 2.843 cumulative IPC: 1.962 (Simulation time: 04 hr 05 min 01 sec)
Heartbeat CPU 0 instructions: 460000000 cycles: 219988449 heartbeat IPC: 2.821 cumulative IPC: 1.976 (Simulation time: 04 hr 09 min 38 sec)
Heartbeat CPU 0 instructions: 470000001 cycles: 223473152 heartbeat IPC: 2.87 cumulative IPC: 1.991 (Simulation time: 04 hr 14 min 17 sec)
Heartbeat CPU 0 instructions: 480000003 cycles: 227226835 heartbeat IPC: 2.664 cumulative IPC: 2.003 (Simulation time: 04 hr 19 min 01 sec)
Heartbeat CPU 0 instructions: 490000000 cycles: 230717779 heartbeat IPC: 2.865 cumulative IPC: 2.017 (Simulation time: 04 hr 23 min 37 sec)
Heartbeat CPU 0 instructions: 500000004 cycles: 234346880 heartbeat IPC: 2.756 cumulative IPC: 2.029 (Simulation time: 04 hr 28 min 21 sec)
Heartbeat CPU 0 instructions: 510000003 cycles: 238028491 heartbeat IPC: 2.716 cumulative IPC: 2.04 (Simulation time: 04 hr 33 min 09 sec)
Heartbeat CPU 0 instructions: 520000000 cycles: 241409329 heartbeat IPC: 2.958 cumulative IPC: 2.054 (Simulation time: 04 hr 37 min 47 sec)
Heartbeat CPU 0 instructions: 530000002 cycles: 245123452 heartbeat IPC: 2.692 cumulative IPC: 2.064 (Simulation time: 04 hr 42 min 26 sec)
Heartbeat CPU 0 instructions: 540000000 cycles: 248660121 heartbeat IPC: 2.828 cumulative IPC: 2.075 (Simulation time: 04 hr 47 min 05 sec)
Heartbeat CPU 0 instructions: 550000001 cycles: 252315411 heartbeat IPC: 2.736 cumulative IPC: 2.085 (Simulation time: 04 hr 51 min 53 sec)
Heartbeat CPU 0 instructions: 560000004 cycles: 256216213 heartbeat IPC: 2.564 cumulative IPC: 2.093 (Simulation time: 04 hr 56 min 47 sec)
Heartbeat CPU 0 instructions: 570000004 cycles: 263228713 heartbeat IPC: 1.426 cumulative IPC: 2.074 (Simulation time: 05 hr 03 min 47 sec)
Heartbeat CPU 0 instructions: 580000003 cycles: 275746652 heartbeat IPC: 0.7989 cumulative IPC: 2.014 (Simulation time: 05 hr 14 min 20 sec)
Heartbeat CPU 0 instructions: 590000002 cycles: 290223233 heartbeat IPC: 0.6908 cumulative IPC: 1.945 (Simulation time: 05 hr 26 min 11 sec)
Heartbeat CPU 0 instructions: 600000000 cycles: 293989004 heartbeat IPC: 2.655 cumulative IPC: 1.954 (Simulation time: 05 hr 30 min 57 sec)
Heartbeat CPU 0 instructions: 610000002 cycles: 297781948 heartbeat IPC: 2.636 cumulative IPC: 1.963 (Simulation time: 05 hr 35 min 45 sec)
Heartbeat CPU 0 instructions: 620000001 cycles: 301186452 heartbeat IPC: 2.937 cumulative IPC: 1.975 (Simulation time: 05 hr 40 min 25 sec)
Heartbeat CPU 0 instructions: 630000002 cycles: 305332159 heartbeat IPC: 2.412 cumulative IPC: 1.981 (Simulation time: 05 hr 45 min 23 sec)
Heartbeat CPU 0 instructions: 640000001 cycles: 309096969 heartbeat IPC: 2.656 cumulative IPC: 1.989 (Simulation time: 05 hr 50 min 12 sec)
Heartbeat CPU 0 instructions: 650000000 cycles: 312767452 heartbeat IPC: 2.724 cumulative IPC: 1.998 (Simulation time: 05 hr 54 min 54 sec)
Simulation finished CPU 0 instructions: 600000001 cycles: 300230371 cumulative IPC: 1.998 (Simulation time: 05 hr 54 min 54 sec)
Simulation complete CPU 0 instructions: 600000001 cycles: 300230371 cumulative IPC: 1.998 (Simulation time: 05 hr 54 min 54 sec)

ChampSim completed all CPUs

=== Simulation ===
CPU 0 runs traces/400.perlbench-41B.champsimtrace.xz
Region of Interest Statistics

CPU 0 cumulative IPC: 1.998 instructions: 600000001 cycles: 300230371
CPU 0 Branch Prediction Accuracy: 96.64% MPKI: 6.948 Average ROB Occupancy at Mispredict: 45.97
Branch type MPKI
BRANCH_DIRECT_JUMP: 0.0123
BRANCH_INDIRECT: 0.323
BRANCH_CONDITIONAL: 6.4
BRANCH_DIRECT_CALL: 0.0043
BRANCH_INDIRECT_CALL: 0.2
BRANCH_RETURN: 0.00828

LLC TOTAL        ACCESS:     466542 HIT:     175239 MISS:     291303
LLC LOAD         ACCESS:     309794 HIT:      75824 MISS:     233970
LLC RFO          ACCESS:      25088 HIT:       8232 MISS:      16856
LLC PREFETCH     ACCESS:      51363 HIT:      22603 MISS:      28760
LLC WRITE        ACCESS:      64444 HIT:      63179 MISS:       1265
LLC TRANSLATION  ACCESS:      15853 HIT:       5401 MISS:      10452
LLC PREFETCH REQUESTED:      51363 ISSUED:      51363 USEFUL:      18509 USELESS:       7003
LLC AVERAGE MISS LATENCY: 552.9 cycles
cpu0_DTLB TOTAL        ACCESS:  141357441 HIT:  140682783 MISS:     674658
cpu0_DTLB LOAD         ACCESS:  141357441 HIT:  140682783 MISS:     674658
cpu0_DTLB RFO          ACCESS:          0 HIT:          0 MISS:          0
cpu0_DTLB PREFETCH     ACCESS:          0 HIT:          0 MISS:          0
cpu0_DTLB WRITE        ACCESS:          0 HIT:          0 MISS:          0
cpu0_DTLB TRANSLATION  ACCESS:          0 HIT:          0 MISS:          0
cpu0_DTLB PREFETCH REQUESTED:          0 ISSUED:          0 USEFUL:          0 USELESS:          0
cpu0_DTLB AVERAGE MISS LATENCY: 15.19 cycles
cpu0_ITLB TOTAL        ACCESS:    4857250 HIT:    4810539 MISS:      46711
cpu0_ITLB LOAD         ACCESS:    4857250 HIT:    4810539 MISS:      46711
cpu0_ITLB RFO          ACCESS:          0 HIT:          0 MISS:          0
cpu0_ITLB PREFETCH     ACCESS:          0 HIT:          0 MISS:          0
cpu0_ITLB WRITE        ACCESS:          0 HIT:          0 MISS:          0
cpu0_ITLB TRANSLATION  ACCESS:          0 HIT:          0 MISS:          0
cpu0_ITLB PREFETCH REQUESTED:          0 ISSUED:          0 USEFUL:          0 USELESS:          0
cpu0_ITLB AVERAGE MISS LATENCY: 9.688 cycles
cpu0_L1D TOTAL        ACCESS:  188002335 HIT:  186686803 MISS:    1315532
cpu0_L1D LOAD         ACCESS:  104676417 HIT:  103668707 MISS:    1007710
cpu0_L1D RFO          ACCESS:          0 HIT:          0 MISS:          0
cpu0_L1D PREFETCH     ACCESS:          0 HIT:          0 MISS:          0
cpu0_L1D WRITE        ACCESS:   83301449 HIT:   83016493 MISS:     284956
cpu0_L1D TRANSLATION  ACCESS:      24469 HIT:       1603 MISS:      22866
cpu0_L1D PREFETCH REQUESTED:          0 ISSUED:          0 USEFUL:          0 USELESS:          0
cpu0_L1D AVERAGE MISS LATENCY: 112 cycles
cpu0_L1I TOTAL        ACCESS:    5594738 HIT:    4874480 MISS:     720258
cpu0_L1I LOAD         ACCESS:    5594738 HIT:    4874480 MISS:     720258
cpu0_L1I RFO          ACCESS:          0 HIT:          0 MISS:          0
cpu0_L1I PREFETCH     ACCESS:          0 HIT:          0 MISS:          0
cpu0_L1I WRITE        ACCESS:          0 HIT:          0 MISS:          0
cpu0_L1I TRANSLATION  ACCESS:          0 HIT:          0 MISS:          0
cpu0_L1I PREFETCH REQUESTED:          0 ISSUED:          0 USEFUL:          0 USELESS:          0
cpu0_L1I AVERAGE MISS LATENCY: 15.73 cycles
cpu0_L2C TOTAL        ACCESS:    1381170 HIT:    1029567 MISS:     351603
cpu0_L2C LOAD         ACCESS:    1124996 HIT:     815202 MISS:     309794
cpu0_L2C RFO          ACCESS:      63672 HIT:      38584 MISS:      25088
cpu0_L2C PREFETCH     ACCESS:          0 HIT:          0 MISS:          0
cpu0_L2C WRITE        ACCESS:     169695 HIT:     168827 MISS:        868
cpu0_L2C TRANSLATION  ACCESS:      22807 HIT:       6954 MISS:      15853
cpu0_L2C PREFETCH REQUESTED:          0 ISSUED:          0 USEFUL:          0 USELESS:          0
cpu0_L2C AVERAGE MISS LATENCY: 430.7 cycles
cpu0_STLB TOTAL        ACCESS:     505965 HIT:     483174 MISS:      22791
cpu0_STLB LOAD         ACCESS:     505965 HIT:     483174 MISS:      22791
cpu0_STLB RFO          ACCESS:          0 HIT:          0 MISS:          0
cpu0_STLB PREFETCH     ACCESS:          0 HIT:          0 MISS:          0
cpu0_STLB WRITE        ACCESS:          0 HIT:          0 MISS:          0
cpu0_STLB TRANSLATION  ACCESS:          0 HIT:          0 MISS:          0
cpu0_STLB PREFETCH REQUESTED:          0 ISSUED:          0 USEFUL:          0 USELESS:          0
cpu0_STLB AVERAGE MISS LATENCY: 324.8 cycles

DRAM Statistics

Channel 0 RQ ROW_BUFFER_HIT:      49045
  ROW_BUFFER_MISS:     236037
 AVG DBUS CONGESTED CYCLE: 3.815
WQ ROW_BUFFER_HIT: Channel 0 
  ROW_BUFFER_MISS:       8301
  FULL:      37666
