WARNING: physical memory size is smaller than virtual memory size.

*** ChampSim Multicore Out-of-Order Simulator ***
Warmup Instructions: 50000000
Simulation Instructions: 600000000
Number of CPUs: 1
Page size: 4096

CPU 0 Tage branch predictor
Off-chip DRAM Size: 4 GiB Channels: 1 Width: 64-bit Data Race: 3200 MT/s
Heartbeat CPU 0 instructions: 10000001 cycles: 2500318 heartbeat IPC: 3.999 cumulative IPC: 3.999 (Simulation time: 00 hr 04 min 02 sec)
Heartbeat CPU 0 instructions: 20000002 cycles: 5037105 heartbeat IPC: 3.942 cumulative IPC: 3.971 (Simulation time: 00 hr 07 min 51 sec)
Heartbeat CPU 0 instructions: 30000002 cycles: 7537105 heartbeat IPC: 4 cumulative IPC: 3.98 (Simulation time: 00 hr 11 min 08 sec)
Heartbeat CPU 0 instructions: 40000002 cycles: 10037105 heartbeat IPC: 4 cumulative IPC: 3.985 (Simulation time: 00 hr 14 min 26 sec)
Heartbeat CPU 0 instructions: 50000002 cycles: 12537105 heartbeat IPC: 4 cumulative IPC: 3.988 (Simulation time: 00 hr 17 min 41 sec)
Warmup finished CPU 0 instructions: 50000002 cycles: 12537106 cumulative IPC: 3.988 (Simulation time: 00 hr 17 min 41 sec)
Warmup complete CPU 0 instructions: 50000002 cycles: 12537106 cumulative IPC: 3.988 (Simulation time: 00 hr 17 min 41 sec)
Heartbeat CPU 0 instructions: 60000001 cycles: 15504958 heartbeat IPC: 3.369 cumulative IPC: 3.369 (Simulation time: 00 hr 21 min 20 sec)
Heartbeat CPU 0 instructions: 70000004 cycles: 18569611 heartbeat IPC: 3.263 cumulative IPC: 3.315 (Simulation time: 00 hr 24 min 54 sec)
Heartbeat CPU 0 instructions: 80000001 cycles: 21608743 heartbeat IPC: 3.29 cumulative IPC: 3.307 (Simulation time: 00 hr 28 min 18 sec)
Heartbeat CPU 0 instructions: 90000001 cycles: 24546221 heartbeat IPC: 3.404 cumulative IPC: 3.331 (Simulation time: 00 hr 31 min 25 sec)
Heartbeat CPU 0 instructions: 100000000 cycles: 27455420 heartbeat IPC: 3.437 cumulative IPC: 3.352 (Simulation time: 00 hr 34 min 37 sec)
Heartbeat CPU 0 instructions: 110000000 cycles: 30395974 heartbeat IPC: 3.401 cumulative IPC: 3.36 (Simulation time: 00 hr 37 min 39 sec)
Heartbeat CPU 0 instructions: 120000001 cycles: 33367726 heartbeat IPC: 3.365 cumulative IPC: 3.36 (Simulation time: 00 hr 40 min 52 sec)
Heartbeat CPU 0 instructions: 130000001 cycles: 36219784 heartbeat IPC: 3.506 cumulative IPC: 3.378 (Simulation time: 00 hr 44 min 03 sec)
Heartbeat CPU 0 instructions: 140000001 cycles: 39252867 heartbeat IPC: 3.297 cumulative IPC: 3.369 (Simulation time: 00 hr 47 min 16 sec)
Heartbeat CPU 0 instructions: 150000001 cycles: 42256956 heartbeat IPC: 3.329 cumulative IPC: 3.365 (Simulation time: 00 hr 50 min 24 sec)
Heartbeat CPU 0 instructions: 160000004 cycles: 45264583 heartbeat IPC: 3.325 cumulative IPC: 3.361 (Simulation time: 00 hr 53 min 37 sec)
Heartbeat CPU 0 instructions: 170000004 cycles: 52009362 heartbeat IPC: 1.483 cumulative IPC: 3.04 (Simulation time: 00 hr 58 min 21 sec)
Heartbeat CPU 0 instructions: 180000004 cycles: 59042818 heartbeat IPC: 1.422 cumulative IPC: 2.795 (Simulation time: 01 hr 03 min 27 sec)
Heartbeat CPU 0 instructions: 190000001 cycles: 66644368 heartbeat IPC: 1.316 cumulative IPC: 2.587 (Simulation time: 01 hr 08 min 48 sec)
Heartbeat CPU 0 instructions: 200000004 cycles: 69595118 heartbeat IPC: 3.389 cumulative IPC: 2.629 (Simulation time: 01 hr 11 min 55 sec)
Heartbeat CPU 0 instructions: 210000001 cycles: 72538223 heartbeat IPC: 3.398 cumulative IPC: 2.667 (Simulation time: 01 hr 15 min 01 sec)
Heartbeat CPU 0 instructions: 220000000 cycles: 75424593 heartbeat IPC: 3.465 cumulative IPC: 2.703 (Simulation time: 01 hr 18 min 11 sec)
Heartbeat CPU 0 instructions: 230000002 cycles: 78412399 heartbeat IPC: 3.347 cumulative IPC: 2.732 (Simulation time: 01 hr 21 min 24 sec)
Heartbeat CPU 0 instructions: 240000003 cycles: 81422870 heartbeat IPC: 3.322 cumulative IPC: 2.758 (Simulation time: 01 hr 24 min 38 sec)
Heartbeat CPU 0 instructions: 250000000 cycles: 84428925 heartbeat IPC: 3.327 cumulative IPC: 2.782 (Simulation time: 01 hr 27 min 51 sec)
Heartbeat CPU 0 instructions: 260000002 cycles: 87374823 heartbeat IPC: 3.395 cumulative IPC: 2.806 (Simulation time: 01 hr 31 min 03 sec)
Heartbeat CPU 0 instructions: 270000002 cycles: 90271951 heartbeat IPC: 3.452 cumulative IPC: 2.83 (Simulation time: 01 hr 34 min 12 sec)
Heartbeat CPU 0 instructions: 280000002 cycles: 93140895 heartbeat IPC: 3.486 cumulative IPC: 2.853 (Simulation time: 01 hr 37 min 26 sec)
Heartbeat CPU 0 instructions: 290000002 cycles: 96091048 heartbeat IPC: 3.39 cumulative IPC: 2.872 (Simulation time: 01 hr 40 min 39 sec)
Heartbeat CPU 0 instructions: 300000003 cycles: 98963676 heartbeat IPC: 3.481 cumulative IPC: 2.893 (Simulation time: 01 hr 43 min 51 sec)
Heartbeat CPU 0 instructions: 310000001 cycles: 101970559 heartbeat IPC: 3.326 cumulative IPC: 2.907 (Simulation time: 01 hr 47 min 00 sec)
Heartbeat CPU 0 instructions: 320000003 cycles: 104958895 heartbeat IPC: 3.346 cumulative IPC: 2.921 (Simulation time: 01 hr 50 min 08 sec)
Heartbeat CPU 0 instructions: 330000003 cycles: 107922664 heartbeat IPC: 3.374 cumulative IPC: 2.935 (Simulation time: 01 hr 53 min 13 sec)
Heartbeat CPU 0 instructions: 340000000 cycles: 114660118 heartbeat IPC: 1.484 cumulative IPC: 2.84 (Simulation time: 01 hr 58 min 06 sec)
Heartbeat CPU 0 instructions: 350000000 cycles: 121820735 heartbeat IPC: 1.397 cumulative IPC: 2.745 (Simulation time: 02 hr 03 min 16 sec)
Heartbeat CPU 0 instructions: 360000004 cycles: 129468181 heartbeat IPC: 1.308 cumulative IPC: 2.651 (Simulation time: 02 hr 08 min 30 sec)
Heartbeat CPU 0 instructions: 370000000 cycles: 132423593 heartbeat IPC: 3.384 cumulative IPC: 2.669 (Simulation time: 02 hr 11 min 36 sec)
Heartbeat CPU 0 instructions: 380000003 cycles: 135337424 heartbeat IPC: 3.432 cumulative IPC: 2.687 (Simulation time: 02 hr 14 min 49 sec)
Heartbeat CPU 0 instructions: 390000002 cycles: 138305618 heartbeat IPC: 3.369 cumulative IPC: 2.703 (Simulation time: 02 hr 18 min 00 sec)
Heartbeat CPU 0 instructions: 400000004 cycles: 141203597 heartbeat IPC: 3.451 cumulative IPC: 2.72 (Simulation time: 02 hr 21 min 11 sec)
Heartbeat CPU 0 instructions: 410000002 cycles: 144131801 heartbeat IPC: 3.415 cumulative IPC: 2.736 (Simulation time: 02 hr 24 min 17 sec)
Heartbeat CPU 0 instructions: 420000003 cycles: 147209042 heartbeat IPC: 3.25 cumulative IPC: 2.747 (Simulation time: 02 hr 27 min 28 sec)
Heartbeat CPU 0 instructions: 430000001 cycles: 150204591 heartbeat IPC: 3.338 cumulative IPC: 2.76 (Simulation time: 02 hr 30 min 39 sec)
Heartbeat CPU 0 instructions: 440000004 cycles: 153327865 heartbeat IPC: 3.202 cumulative IPC: 2.77 (Simulation time: 02 hr 33 min 53 sec)
Heartbeat CPU 0 instructions: 450000002 cycles: 156235257 heartbeat IPC: 3.44 cumulative IPC: 2.784 (Simulation time: 02 hr 37 min 09 sec)
Heartbeat CPU 0 instructions: 460000000 cycles: 159155724 heartbeat IPC: 3.424 cumulative IPC: 2.796 (Simulation time: 02 hr 40 min 12 sec)
Heartbeat CPU 0 instructions: 470000001 cycles: 162001890 heartbeat IPC: 3.513 cumulative IPC: 2.81 (Simulation time: 02 hr 43 min 13 sec)
Heartbeat CPU 0 instructions: 480000003 cycles: 165041097 heartbeat IPC: 3.29 cumulative IPC: 2.82 (Simulation time: 02 hr 46 min 21 sec)
Heartbeat CPU 0 instructions: 490000004 cycles: 167863762 heartbeat IPC: 3.543 cumulative IPC: 2.833 (Simulation time: 02 hr 49 min 30 sec)
Heartbeat CPU 0 instructions: 500000004 cycles: 170843938 heartbeat IPC: 3.356 cumulative IPC: 2.843 (Simulation time: 02 hr 52 min 39 sec)
Heartbeat CPU 0 instructions: 510000003 cycles: 173861730 heartbeat IPC: 3.314 cumulative IPC: 2.851 (Simulation time: 02 hr 55 min 51 sec)
Heartbeat CPU 0 instructions: 520000001 cycles: 176730340 heartbeat IPC: 3.486 cumulative IPC: 2.862 (Simulation time: 02 hr 59 min 07 sec)
Heartbeat CPU 0 instructions: 530000001 cycles: 179719352 heartbeat IPC: 3.346 cumulative IPC: 2.871 (Simulation time: 03 hr 02 min 18 sec)
Heartbeat CPU 0 instructions: 540000000 cycles: 182661131 heartbeat IPC: 3.399 cumulative IPC: 2.88 (Simulation time: 03 hr 05 min 38 sec)
Heartbeat CPU 0 instructions: 550000001 cycles: 185637934 heartbeat IPC: 3.359 cumulative IPC: 2.888 (Simulation time: 03 hr 08 min 46 sec)
Heartbeat CPU 0 instructions: 560000000 cycles: 188714783 heartbeat IPC: 3.25 cumulative IPC: 2.895 (Simulation time: 03 hr 11 min 51 sec)
Heartbeat CPU 0 instructions: 570000004 cycles: 193604400 heartbeat IPC: 2.045 cumulative IPC: 2.872 (Simulation time: 03 hr 15 min 39 sec)
Heartbeat CPU 0 instructions: 580000003 cycles: 201014361 heartbeat IPC: 1.35 cumulative IPC: 2.812 (Simulation time: 03 hr 20 min 40 sec)
Heartbeat CPU 0 instructions: 590000002 cycles: 210309365 heartbeat IPC: 1.076 cumulative IPC: 2.73 (Simulation time: 03 hr 25 min 59 sec)
Heartbeat CPU 0 instructions: 600000004 cycles: 213338416 heartbeat IPC: 3.301 cumulative IPC: 2.739 (Simulation time: 03 hr 28 min 25 sec)
Heartbeat CPU 0 instructions: 610000002 cycles: 216291381 heartbeat IPC: 3.386 cumulative IPC: 2.748 (Simulation time: 03 hr 30 min 48 sec)
Heartbeat CPU 0 instructions: 620000001 cycles: 219064771 heartbeat IPC: 3.606 cumulative IPC: 2.76 (Simulation time: 03 hr 33 min 05 sec)
Heartbeat CPU 0 instructions: 630000002 cycles: 222027639 heartbeat IPC: 3.375 cumulative IPC: 2.769 (Simulation time: 03 hr 34 min 59 sec)
Heartbeat CPU 0 instructions: 640000004 cycles: 224976015 heartbeat IPC: 3.392 cumulative IPC: 2.777 (Simulation time: 03 hr 36 min 21 sec)
Heartbeat CPU 0 instructions: 650000000 cycles: 227722461 heartbeat IPC: 3.641 cumulative IPC: 2.788 (Simulation time: 03 hr 37 min 34 sec)
Simulation finished CPU 0 instructions: 600000001 cycles: 215185357 cumulative IPC: 2.788 (Simulation time: 03 hr 37 min 34 sec)
Simulation complete CPU 0 instructions: 600000001 cycles: 215185357 cumulative IPC: 2.788 (Simulation time: 03 hr 37 min 34 sec)

ChampSim completed all CPUs

=== Simulation ===
CPU 0 runs traces/400.perlbench-41B.champsimtrace.xz
Region of Interest Statistics

CPU 0 cumulative IPC: 2.788 instructions: 600000001 cycles: 215185357
CPU 0 Branch Prediction Accuracy: 99.19% MPKI: 1.684 Average ROB Occupancy at Mispredict: 101.3
Branch type MPKI
BRANCH_DIRECT_JUMP: 0.0123
BRANCH_INDIRECT: 0.323
BRANCH_CONDITIONAL: 1.14
BRANCH_DIRECT_CALL: 0.0043
BRANCH_INDIRECT_CALL: 0.2
BRANCH_RETURN: 0.00828

LLC TOTAL        ACCESS:     415064 HIT:     189352 MISS:     225712
LLC LOAD         ACCESS:     309559 HIT:     102647 MISS:     206912
LLC RFO          ACCESS:      25147 HIT:      20277 MISS:       4870
LLC PREFETCH     ACCESS:          0 HIT:          0 MISS:          0
LLC WRITE        ACCESS:      64580 HIT:      61502 MISS:       3078
LLC TRANSLATION  ACCESS:      15778 HIT:       4926 MISS:      10852
LLC PREFETCH REQUESTED:          0 ISSUED:          0 USEFUL:          0 USELESS:          0
LLC AVERAGE MISS LATENCY: 556.1 cycles
cpu0_DTLB TOTAL        ACCESS:  129767473 HIT:  129064659 MISS:     702814
cpu0_DTLB LOAD         ACCESS:  129767473 HIT:  129064659 MISS:     702814
cpu0_DTLB RFO          ACCESS:          0 HIT:          0 MISS:          0
cpu0_DTLB PREFETCH     ACCESS:          0 HIT:          0 MISS:          0
cpu0_DTLB WRITE        ACCESS:          0 HIT:          0 MISS:          0
cpu0_DTLB TRANSLATION  ACCESS:          0 HIT:          0 MISS:          0
cpu0_DTLB PREFETCH REQUESTED:          0 ISSUED:          0 USEFUL:          0 USELESS:          0
cpu0_DTLB AVERAGE MISS LATENCY: 14.71 cycles
cpu0_ITLB TOTAL        ACCESS:    4876168 HIT:    4813501 MISS:      62667
cpu0_ITLB LOAD         ACCESS:    4876168 HIT:    4813501 MISS:      62667
cpu0_ITLB RFO          ACCESS:          0 HIT:          0 MISS:          0
cpu0_ITLB PREFETCH     ACCESS:          0 HIT:          0 MISS:          0
cpu0_ITLB WRITE        ACCESS:          0 HIT:          0 MISS:          0
cpu0_ITLB TRANSLATION  ACCESS:          0 HIT:          0 MISS:          0
cpu0_ITLB PREFETCH REQUESTED:          0 ISSUED:          0 USEFUL:          0 USELESS:          0
cpu0_ITLB AVERAGE MISS LATENCY: 6.355 cycles
cpu0_L1D TOTAL        ACCESS:  174372253 HIT:  172991093 MISS:    1381160
cpu0_L1D LOAD         ACCESS:   91350308 HIT:   90272947 MISS:    1077361
cpu0_L1D RFO          ACCESS:          0 HIT:          0 MISS:          0
cpu0_L1D PREFETCH     ACCESS:          0 HIT:          0 MISS:          0
cpu0_L1D WRITE        ACCESS:   82997480 HIT:   82716549 MISS:     280931
cpu0_L1D TRANSLATION  ACCESS:      24465 HIT:       1597 MISS:      22868
cpu0_L1D PREFETCH REQUESTED:          0 ISSUED:          0 USEFUL:          0 USELESS:          0
cpu0_L1D AVERAGE MISS LATENCY: 91.46 cycles
cpu0_L1I TOTAL        ACCESS:    5655198 HIT:    4849028 MISS:     806170
cpu0_L1I LOAD         ACCESS:    5655198 HIT:    4849028 MISS:     806170
cpu0_L1I RFO          ACCESS:          0 HIT:          0 MISS:          0
cpu0_L1I PREFETCH     ACCESS:          0 HIT:          0 MISS:          0
cpu0_L1I WRITE        ACCESS:          0 HIT:          0 MISS:          0
cpu0_L1I TRANSLATION  ACCESS:          0 HIT:          0 MISS:          0
cpu0_L1I PREFETCH REQUESTED:          0 ISSUED:          0 USEFUL:          0 USELESS:          0
cpu0_L1I AVERAGE MISS LATENCY: 9.471 cycles
cpu0_L2C TOTAL        ACCESS:    1382204 HIT:    1030827 MISS:     351377
cpu0_L2C LOAD         ACCESS:    1124102 HIT:     814543 MISS:     309559
cpu0_L2C RFO          ACCESS:      64500 HIT:      39353 MISS:      25147
cpu0_L2C PREFETCH     ACCESS:          0 HIT:          0 MISS:          0
cpu0_L2C WRITE        ACCESS:     170815 HIT:     169922 MISS:        893
cpu0_L2C TRANSLATION  ACCESS:      22787 HIT:       7009 MISS:      15778
cpu0_L2C PREFETCH REQUESTED:          0 ISSUED:          0 USEFUL:          0 USELESS:          0
cpu0_L2C AVERAGE MISS LATENCY: 377.8 cycles
cpu0_STLB TOTAL        ACCESS:     509050 HIT:     486263 MISS:      22787
cpu0_STLB LOAD         ACCESS:     509050 HIT:     486263 MISS:      22787
cpu0_STLB RFO          ACCESS:          0 HIT:          0 MISS:          0
cpu0_STLB PREFETCH     ACCESS:          0 HIT:          0 MISS:          0
cpu0_STLB WRITE        ACCESS:          0 HIT:          0 MISS:          0
cpu0_STLB TRANSLATION  ACCESS:          0 HIT:          0 MISS:          0
cpu0_STLB PREFETCH REQUESTED:          0 ISSUED:          0 USEFUL:          0 USELESS:          0
cpu0_STLB AVERAGE MISS LATENCY: 345.7 cycles

DRAM Statistics

Channel 0 RQ ROW_BUFFER_HIT:      58907
  ROW_BUFFER_MISS:     163726
 AVG DBUS CONGESTED CYCLE: 3.756
WQ ROW_BUFFER_HIT: Channel 0 
  ROW_BUFFER_MISS:       1611
  FULL:       1805
