WARNING: physical memory size is smaller than virtual memory size.

*** ChampSim Multicore Out-of-Order Simulator ***
Warmup Instructions: 50000000
Simulation Instructions: 600000000
Number of CPUs: 1
Page size: 4096

Off-chip DRAM Size: 4 GiB Channels: 1 Width: 64-bit Data Race: 3200 MT/s
Heartbeat CPU 0 instructions: 10000001 cycles: 2500318 heartbeat IPC: 3.999 cumulative IPC: 3.999 (Simulation time: 00 hr 03 min 41 sec)
Heartbeat CPU 0 instructions: 20000002 cycles: 5037087 heartbeat IPC: 3.942 cumulative IPC: 3.971 (Simulation time: 00 hr 07 min 39 sec)
Heartbeat CPU 0 instructions: 30000002 cycles: 7537087 heartbeat IPC: 4 cumulative IPC: 3.98 (Simulation time: 00 hr 11 min 08 sec)
Heartbeat CPU 0 instructions: 40000002 cycles: 10037087 heartbeat IPC: 4 cumulative IPC: 3.985 (Simulation time: 00 hr 14 min 37 sec)
Heartbeat CPU 0 instructions: 50000002 cycles: 12537087 heartbeat IPC: 4 cumulative IPC: 3.988 (Simulation time: 00 hr 18 min 03 sec)
Warmup finished CPU 0 instructions: 50000002 cycles: 12537088 cumulative IPC: 3.988 (Simulation time: 00 hr 18 min 03 sec)
Warmup complete CPU 0 instructions: 50000002 cycles: 12537088 cumulative IPC: 3.988 (Simulation time: 00 hr 18 min 03 sec)
Heartbeat CPU 0 instructions: 60000000 cycles: 17715698 heartbeat IPC: 1.931 cumulative IPC: 1.931 (Simulation time: 00 hr 23 min 29 sec)
Heartbeat CPU 0 instructions: 70000002 cycles: 22616893 heartbeat IPC: 2.04 cumulative IPC: 1.984 (Simulation time: 00 hr 28 min 50 sec)
Heartbeat CPU 0 instructions: 80000001 cycles: 27991372 heartbeat IPC: 1.861 cumulative IPC: 1.941 (Simulation time: 00 hr 34 min 22 sec)
Heartbeat CPU 0 instructions: 90000001 cycles: 32873094 heartbeat IPC: 2.048 cumulative IPC: 1.967 (Simulation time: 00 hr 39 min 36 sec)
Heartbeat CPU 0 instructions: 100000000 cycles: 37991528 heartbeat IPC: 1.954 cumulative IPC: 1.964 (Simulation time: 00 hr 45 min 00 sec)
Heartbeat CPU 0 instructions: 110000000 cycles: 42885106 heartbeat IPC: 2.043 cumulative IPC: 1.977 (Simulation time: 00 hr 50 min 12 sec)
Heartbeat CPU 0 instructions: 120000001 cycles: 48091493 heartbeat IPC: 1.921 cumulative IPC: 1.969 (Simulation time: 00 hr 55 min 40 sec)
Heartbeat CPU 0 instructions: 130000001 cycles: 53254556 heartbeat IPC: 1.937 cumulative IPC: 1.965 (Simulation time: 01 hr 01 min 09 sec)
Heartbeat CPU 0 instructions: 140000001 cycles: 58575867 heartbeat IPC: 1.879 cumulative IPC: 1.955 (Simulation time: 01 hr 06 min 37 sec)
Heartbeat CPU 0 instructions: 150000001 cycles: 63907580 heartbeat IPC: 1.876 cumulative IPC: 1.947 (Simulation time: 01 hr 12 min 06 sec)
Heartbeat CPU 0 instructions: 160000004 cycles: 69121948 heartbeat IPC: 1.918 cumulative IPC: 1.944 (Simulation time: 01 hr 17 min 31 sec)
Heartbeat CPU 0 instructions: 170000004 cycles: 78350719 heartbeat IPC: 1.084 cumulative IPC: 1.823 (Simulation time: 01 hr 25 min 36 sec)
Heartbeat CPU 0 instructions: 180000004 cycles: 86792714 heartbeat IPC: 1.185 cumulative IPC: 1.751 (Simulation time: 01 hr 33 min 25 sec)
Heartbeat CPU 0 instructions: 190000001 cycles: 97574185 heartbeat IPC: 0.9275 cumulative IPC: 1.646 (Simulation time: 01 hr 42 min 40 sec)
Heartbeat CPU 0 instructions: 200000003 cycles: 102347885 heartbeat IPC: 2.095 cumulative IPC: 1.67 (Simulation time: 01 hr 47 min 53 sec)
Heartbeat CPU 0 instructions: 210000001 cycles: 107267851 heartbeat IPC: 2.033 cumulative IPC: 1.689 (Simulation time: 01 hr 53 min 14 sec)
Heartbeat CPU 0 instructions: 220000000 cycles: 112098494 heartbeat IPC: 2.07 cumulative IPC: 1.707 (Simulation time: 01 hr 58 min 41 sec)
Heartbeat CPU 0 instructions: 230000002 cycles: 117398509 heartbeat IPC: 1.887 cumulative IPC: 1.717 (Simulation time: 02 hr 04 min 09 sec)
Heartbeat CPU 0 instructions: 240000000 cycles: 122233590 heartbeat IPC: 2.068 cumulative IPC: 1.732 (Simulation time: 02 hr 09 min 27 sec)
Heartbeat CPU 0 instructions: 250000000 cycles: 127376995 heartbeat IPC: 1.944 cumulative IPC: 1.742 (Simulation time: 02 hr 14 min 53 sec)
Heartbeat CPU 0 instructions: 260000000 cycles: 132391268 heartbeat IPC: 1.994 cumulative IPC: 1.752 (Simulation time: 02 hr 20 min 13 sec)
Heartbeat CPU 0 instructions: 270000002 cycles: 137270791 heartbeat IPC: 2.049 cumulative IPC: 1.764 (Simulation time: 02 hr 25 min 28 sec)
Heartbeat CPU 0 instructions: 280000002 cycles: 142163274 heartbeat IPC: 2.044 cumulative IPC: 1.774 (Simulation time: 02 hr 30 min 44 sec)
Heartbeat CPU 0 instructions: 290000001 cycles: 147528625 heartbeat IPC: 1.864 cumulative IPC: 1.778 (Simulation time: 02 hr 36 min 29 sec)
Heartbeat CPU 0 instructions: 300000003 cycles: 152573788 heartbeat IPC: 1.982 cumulative IPC: 1.785 (Simulation time: 02 hr 41 min 53 sec)
Heartbeat CPU 0 instructions: 310000001 cycles: 157861507 heartbeat IPC: 1.891 cumulative IPC: 1.789 (Simulation time: 02 hr 47 min 25 sec)
Heartbeat CPU 0 instructions: 320000003 cycles: 163060224 heartbeat IPC: 1.924 cumulative IPC: 1.794 (Simulation time: 02 hr 52 min 54 sec)
Heartbeat CPU 0 instructions: 330000003 cycles: 168345901 heartbeat IPC: 1.892 cumulative IPC: 1.797 (Simulation time: 02 hr 58 min 24 sec)
Heartbeat CPU 0 instructions: 340000000 cycles: 177635051 heartbeat IPC: 1.077 cumulative IPC: 1.757 (Simulation time: 03 hr 06 min 44 sec)
Heartbeat CPU 0 instructions: 350000000 cycles: 186739086 heartbeat IPC: 1.098 cumulative IPC: 1.722 (Simulation time: 03 hr 14 min 59 sec)
Heartbeat CPU 0 instructions: 360000004 cycles: 197495543 heartbeat IPC: 0.9297 cumulative IPC: 1.676 (Simulation time: 03 hr 24 min 09 sec)
Heartbeat CPU 0 instructions: 370000000 cycles: 201905167 heartbeat IPC: 2.268 cumulative IPC: 1.69 (Simulation time: 03 hr 29 min 11 sec)
Heartbeat CPU 0 instructions: 380000001 cycles: 206824005 heartbeat IPC: 2.033 cumulative IPC: 1.699 (Simulation time: 03 hr 34 min 32 sec)
Heartbeat CPU 0 instructions: 390000002 cycles: 211648339 heartbeat IPC: 2.073 cumulative IPC: 1.708 (Simulation time: 03 hr 39 min 49 sec)
Heartbeat CPU 0 instructions: 400000004 cycles: 216583567 heartbeat IPC: 2.026 cumulative IPC: 1.715 (Simulation time: 03 hr 45 min 07 sec)
Heartbeat CPU 0 instructions: 410000000 cycles: 221304188 heartbeat IPC: 2.118 cumulative IPC: 1.724 (Simulation time: 03 hr 50 min 34 sec)
Heartbeat CPU 0 instructions: 420000000 cycles: 226410700 heartbeat IPC: 1.958 cumulative IPC: 1.73 (Simulation time: 03 hr 55 min 56 sec)
Heartbeat CPU 0 instructions: 430000001 cycles: 230878820 heartbeat IPC: 2.238 cumulative IPC: 1.74 (Simulation time: 04 hr 01 min 04 sec)
Heartbeat CPU 0 instructions: 440000000 cycles: 236227892 heartbeat IPC: 1.869 cumulative IPC: 1.743 (Simulation time: 04 hr 06 min 36 sec)
Heartbeat CPU 0 instructions: 450000002 cycles: 240889427 heartbeat IPC: 2.145 cumulative IPC: 1.752 (Simulation time: 04 hr 11 min 46 sec)
Heartbeat CPU 0 instructions: 460000000 cycles: 245681389 heartbeat IPC: 2.087 cumulative IPC: 1.759 (Simulation time: 04 hr 16 min 58 sec)
Heartbeat CPU 0 instructions: 470000000 cycles: 250658560 heartbeat IPC: 2.009 cumulative IPC: 1.764 (Simulation time: 04 hr 22 min 31 sec)
Heartbeat CPU 0 instructions: 480000003 cycles: 255455604 heartbeat IPC: 2.085 cumulative IPC: 1.77 (Simulation time: 04 hr 27 min 39 sec)
Heartbeat CPU 0 instructions: 490000000 cycles: 260061393 heartbeat IPC: 2.171 cumulative IPC: 1.778 (Simulation time: 04 hr 32 min 45 sec)
Heartbeat CPU 0 instructions: 500000000 cycles: 265079778 heartbeat IPC: 1.993 cumulative IPC: 1.782 (Simulation time: 04 hr 38 min 06 sec)
Heartbeat CPU 0 instructions: 510000003 cycles: 270724914 heartbeat IPC: 1.771 cumulative IPC: 1.782 (Simulation time: 04 hr 43 min 50 sec)
Heartbeat CPU 0 instructions: 520000001 cycles: 275408894 heartbeat IPC: 2.135 cumulative IPC: 1.788 (Simulation time: 04 hr 49 min 01 sec)
Heartbeat CPU 0 instructions: 530000002 cycles: 280553879 heartbeat IPC: 1.944 cumulative IPC: 1.791 (Simulation time: 04 hr 54 min 28 sec)
Heartbeat CPU 0 instructions: 540000000 cycles: 285662954 heartbeat IPC: 1.957 cumulative IPC: 1.794 (Simulation time: 04 hr 59 min 53 sec)
Heartbeat CPU 0 instructions: 550000001 cycles: 290468840 heartbeat IPC: 2.081 cumulative IPC: 1.799 (Simulation time: 05 hr 05 min 14 sec)
Heartbeat CPU 0 instructions: 560000000 cycles: 295700366 heartbeat IPC: 1.911 cumulative IPC: 1.801 (Simulation time: 05 hr 10 min 42 sec)
Heartbeat CPU 0 instructions: 570000004 cycles: 302735866 heartbeat IPC: 1.421 cumulative IPC: 1.792 (Simulation time: 05 hr 17 min 26 sec)
Heartbeat CPU 0 instructions: 580000003 cycles: 311814171 heartbeat IPC: 1.102 cumulative IPC: 1.771 (Simulation time: 05 hr 25 min 47 sec)
Heartbeat CPU 0 instructions: 590000002 cycles: 324698320 heartbeat IPC: 0.7761 cumulative IPC: 1.73 (Simulation time: 05 hr 36 min 32 sec)
Heartbeat CPU 0 instructions: 600000000 cycles: 329294255 heartbeat IPC: 2.176 cumulative IPC: 1.736 (Simulation time: 05 hr 41 min 38 sec)
Heartbeat CPU 0 instructions: 610000002 cycles: 333782145 heartbeat IPC: 2.228 cumulative IPC: 1.743 (Simulation time: 05 hr 46 min 43 sec)
Heartbeat CPU 0 instructions: 620000000 cycles: 338584211 heartbeat IPC: 2.082 cumulative IPC: 1.748 (Simulation time: 05 hr 52 min 02 sec)
Heartbeat CPU 0 instructions: 630000002 cycles: 343668545 heartbeat IPC: 1.967 cumulative IPC: 1.752 (Simulation time: 05 hr 57 min 33 sec)
Heartbeat CPU 0 instructions: 640000001 cycles: 348520230 heartbeat IPC: 2.061 cumulative IPC: 1.756 (Simulation time: 06 hr 02 min 53 sec)
Heartbeat CPU 0 instructions: 650000000 cycles: 353075174 heartbeat IPC: 2.195 cumulative IPC: 1.762 (Simulation time: 06 hr 07 min 59 sec)
Simulation finished CPU 0 instructions: 600000001 cycles: 340538088 cumulative IPC: 1.762 (Simulation time: 06 hr 07 min 59 sec)
Simulation complete CPU 0 instructions: 600000001 cycles: 340538088 cumulative IPC: 1.762 (Simulation time: 06 hr 07 min 59 sec)

ChampSim completed all CPUs

=== Simulation ===
CPU 0 runs traces/400.perlbench-41B.champsimtrace.xz
Region of Interest Statistics

CPU 0 cumulative IPC: 1.762 instructions: 600000001 cycles: 340538088
CPU 0 Branch Prediction Accuracy: 93.95% MPKI: 12.5 Average ROB Occupancy at Mispredict: 29.54
Branch type MPKI
BRANCH_DIRECT_JUMP: 0.0123
BRANCH_INDIRECT: 0.323
BRANCH_CONDITIONAL: 12
BRANCH_DIRECT_CALL: 0.0043
BRANCH_INDIRECT_CALL: 0.2
BRANCH_RETURN: 0.00828

LLC TOTAL        ACCESS:     465819 HIT:     218117 MISS:     247702
LLC LOAD         ACCESS:     309500 HIT:     130747 MISS:     178753
LLC RFO          ACCESS:      25155 HIT:       9460 MISS:      15695
LLC PREFETCH     ACCESS:      50837 HIT:      41014 MISS:       9823
LLC WRITE        ACCESS:      64604 HIT:      34196 MISS:      30408
LLC TRANSLATION  ACCESS:      15723 HIT:       2700 MISS:      13023
LLC PREFETCH REQUESTED:      50837 ISSUED:      50837 USEFUL:       3293 USELESS:       5486
LLC AVERAGE MISS LATENCY: 479.3 cycles
cpu0_DTLB TOTAL        ACCESS:  153656911 HIT:  152979988 MISS:     676923
cpu0_DTLB LOAD         ACCESS:  153656911 HIT:  152979988 MISS:     676923
cpu0_DTLB RFO          ACCESS:          0 HIT:          0 MISS:          0
cpu0_DTLB PREFETCH     ACCESS:          0 HIT:          0 MISS:          0
cpu0_DTLB WRITE        ACCESS:          0 HIT:          0 MISS:          0
cpu0_DTLB TRANSLATION  ACCESS:          0 HIT:          0 MISS:          0
cpu0_DTLB PREFETCH REQUESTED:          0 ISSUED:          0 USEFUL:          0 USELESS:          0
cpu0_DTLB AVERAGE MISS LATENCY: 17.55 cycles
cpu0_ITLB TOTAL        ACCESS:    4839483 HIT:    4781425 MISS:      58058
cpu0_ITLB LOAD         ACCESS:    4839483 HIT:    4781425 MISS:      58058
cpu0_ITLB RFO          ACCESS:          0 HIT:          0 MISS:          0
cpu0_ITLB PREFETCH     ACCESS:          0 HIT:          0 MISS:          0
cpu0_ITLB WRITE        ACCESS:          0 HIT:          0 MISS:          0
cpu0_ITLB TRANSLATION  ACCESS:          0 HIT:          0 MISS:          0
cpu0_ITLB PREFETCH REQUESTED:          0 ISSUED:          0 USEFUL:          0 USELESS:          0
cpu0_ITLB AVERAGE MISS LATENCY: 6.711 cycles
cpu0_L1D TOTAL        ACCESS:  200289328 HIT:  198975519 MISS:    1313809
cpu0_L1D LOAD         ACCESS:  117045539 HIT:  116040739 MISS:    1004800
cpu0_L1D RFO          ACCESS:          0 HIT:          0 MISS:          0
cpu0_L1D PREFETCH     ACCESS:          0 HIT:          0 MISS:          0
cpu0_L1D WRITE        ACCESS:   83219325 HIT:   82933203 MISS:     286122
cpu0_L1D TRANSLATION  ACCESS:      24464 HIT:       1577 MISS:      22887
cpu0_L1D PREFETCH REQUESTED:          0 ISSUED:          0 USEFUL:          0 USELESS:          0
cpu0_L1D AVERAGE MISS LATENCY: 91.41 cycles
cpu0_L1I TOTAL        ACCESS:    5581435 HIT:    4819314 MISS:     762121
cpu0_L1I LOAD         ACCESS:    5581435 HIT:    4819314 MISS:     762121
cpu0_L1I RFO          ACCESS:          0 HIT:          0 MISS:          0
cpu0_L1I PREFETCH     ACCESS:          0 HIT:          0 MISS:          0
cpu0_L1I WRITE        ACCESS:          0 HIT:          0 MISS:          0
cpu0_L1I TRANSLATION  ACCESS:          0 HIT:          0 MISS:          0
cpu0_L1I PREFETCH REQUESTED:          0 ISSUED:          0 USEFUL:          0 USELESS:          0
cpu0_L1I AVERAGE MISS LATENCY: 10.56 cycles
cpu0_L2C TOTAL        ACCESS:    1382525 HIT:    1031280 MISS:     351245
cpu0_L2C LOAD         ACCESS:    1125669 HIT:     816169 MISS:     309500
cpu0_L2C RFO          ACCESS:      63910 HIT:      38755 MISS:      25155
cpu0_L2C PREFETCH     ACCESS:          0 HIT:          0 MISS:          0
cpu0_L2C WRITE        ACCESS:     170142 HIT:     169275 MISS:        867
cpu0_L2C TRANSLATION  ACCESS:      22804 HIT:       7081 MISS:      15723
cpu0_L2C PREFETCH REQUESTED:          0 ISSUED:          0 USEFUL:          0 USELESS:          0
cpu0_L2C AVERAGE MISS LATENCY: 340 cycles
cpu0_STLB TOTAL        ACCESS:     505007 HIT:     482217 MISS:      22790
cpu0_STLB LOAD         ACCESS:     505007 HIT:     482217 MISS:      22790
cpu0_STLB RFO          ACCESS:          0 HIT:          0 MISS:          0
cpu0_STLB PREFETCH     ACCESS:          0 HIT:          0 MISS:          0
cpu0_STLB WRITE        ACCESS:          0 HIT:          0 MISS:          0
cpu0_STLB TRANSLATION  ACCESS:          0 HIT:          0 MISS:          0
cpu0_STLB PREFETCH REQUESTED:          0 ISSUED:          0 USEFUL:          0 USELESS:          0
cpu0_STLB AVERAGE MISS LATENCY: 399.7 cycles

DRAM Statistics

Channel 0 RQ ROW_BUFFER_HIT:      36090
  ROW_BUFFER_MISS:     180046
 AVG DBUS CONGESTED CYCLE: 3.794
WQ ROW_BUFFER_HIT: Channel 0 
  ROW_BUFFER_MISS:       8664
  FULL:      24573
