WARNING: physical memory size is smaller than virtual memory size.

*** ChampSim Multicore Out-of-Order Simulator ***
Warmup Instructions: 50000000
Simulation Instructions: 600000000
Number of CPUs: 1
Page size: 4096

CPU 0 Tage branch predictor
Off-chip DRAM Size: 4 GiB Channels: 1 Width: 64-bit Data Race: 3200 MT/s
Heartbeat CPU 0 instructions: 10000000 cycles: 2500061 heartbeat IPC: 4 cumulative IPC: 4 (Simulation time: 00 hr 04 min 28 sec)
Heartbeat CPU 0 instructions: 20000000 cycles: 5000061 heartbeat IPC: 4 cumulative IPC: 4 (Simulation time: 00 hr 08 min 48 sec)
Heartbeat CPU 0 instructions: 30000000 cycles: 7500061 heartbeat IPC: 4 cumulative IPC: 4 (Simulation time: 00 hr 13 min 07 sec)
Heartbeat CPU 0 instructions: 40000000 cycles: 10000061 heartbeat IPC: 4 cumulative IPC: 4 (Simulation time: 00 hr 17 min 34 sec)
Heartbeat CPU 0 instructions: 50000000 cycles: 12500061 heartbeat IPC: 4 cumulative IPC: 4 (Simulation time: 00 hr 22 min 13 sec)
Warmup finished CPU 0 instructions: 50000000 cycles: 12500062 cumulative IPC: 4 (Simulation time: 00 hr 22 min 13 sec)
Warmup complete CPU 0 instructions: 50000000 cycles: 12500062 cumulative IPC: 4 (Simulation time: 00 hr 22 min 13 sec)
Heartbeat CPU 0 instructions: 60000004 cycles: 15503755 heartbeat IPC: 3.329 cumulative IPC: 3.329 (Simulation time: 00 hr 27 min 21 sec)
Heartbeat CPU 0 instructions: 70000003 cycles: 18381707 heartbeat IPC: 3.475 cumulative IPC: 3.4 (Simulation time: 00 hr 32 min 23 sec)
Heartbeat CPU 0 instructions: 80000002 cycles: 21403704 heartbeat IPC: 3.309 cumulative IPC: 3.369 (Simulation time: 00 hr 37 min 17 sec)
Heartbeat CPU 0 instructions: 90000000 cycles: 24125815 heartbeat IPC: 3.674 cumulative IPC: 3.441 (Simulation time: 00 hr 42 min 13 sec)
Heartbeat CPU 0 instructions: 100000003 cycles: 26891989 heartbeat IPC: 3.615 cumulative IPC: 3.474 (Simulation time: 00 hr 47 min 04 sec)
Heartbeat CPU 0 instructions: 110000001 cycles: 29797284 heartbeat IPC: 3.442 cumulative IPC: 3.469 (Simulation time: 00 hr 51 min 54 sec)
Heartbeat CPU 0 instructions: 120000001 cycles: 32521234 heartbeat IPC: 3.671 cumulative IPC: 3.496 (Simulation time: 00 hr 56 min 50 sec)
Heartbeat CPU 0 instructions: 130000003 cycles: 35423852 heartbeat IPC: 3.445 cumulative IPC: 3.49 (Simulation time: 01 hr 01 min 38 sec)
Heartbeat CPU 0 instructions: 140000002 cycles: 38261887 heartbeat IPC: 3.524 cumulative IPC: 3.494 (Simulation time: 01 hr 06 min 26 sec)
Heartbeat CPU 0 instructions: 150000001 cycles: 41035638 heartbeat IPC: 3.605 cumulative IPC: 3.504 (Simulation time: 01 hr 11 min 11 sec)
Heartbeat CPU 0 instructions: 160000000 cycles: 43951113 heartbeat IPC: 3.43 cumulative IPC: 3.497 (Simulation time: 01 hr 16 min 01 sec)
Heartbeat CPU 0 instructions: 170000001 cycles: 46882100 heartbeat IPC: 3.412 cumulative IPC: 3.49 (Simulation time: 01 hr 20 min 54 sec)
Heartbeat CPU 0 instructions: 180000000 cycles: 49680801 heartbeat IPC: 3.573 cumulative IPC: 3.496 (Simulation time: 01 hr 25 min 45 sec)
Heartbeat CPU 0 instructions: 190000002 cycles: 52389698 heartbeat IPC: 3.692 cumulative IPC: 3.51 (Simulation time: 01 hr 30 min 32 sec)
Heartbeat CPU 0 instructions: 200000002 cycles: 55219274 heartbeat IPC: 3.534 cumulative IPC: 3.511 (Simulation time: 01 hr 35 min 23 sec)
Heartbeat CPU 0 instructions: 210000000 cycles: 58120080 heartbeat IPC: 3.447 cumulative IPC: 3.507 (Simulation time: 01 hr 40 min 14 sec)
Heartbeat CPU 0 instructions: 220000001 cycles: 60885929 heartbeat IPC: 3.616 cumulative IPC: 3.513 (Simulation time: 01 hr 44 min 59 sec)
Heartbeat CPU 0 instructions: 230000002 cycles: 63780165 heartbeat IPC: 3.455 cumulative IPC: 3.51 (Simulation time: 01 hr 49 min 52 sec)
Heartbeat CPU 0 instructions: 240000004 cycles: 66741425 heartbeat IPC: 3.377 cumulative IPC: 3.503 (Simulation time: 01 hr 54 min 45 sec)
Heartbeat CPU 0 instructions: 250000003 cycles: 69652874 heartbeat IPC: 3.435 cumulative IPC: 3.499 (Simulation time: 01 hr 59 min 42 sec)
Heartbeat CPU 0 instructions: 260000001 cycles: 72449255 heartbeat IPC: 3.576 cumulative IPC: 3.503 (Simulation time: 02 hr 04 min 29 sec)
Heartbeat CPU 0 instructions: 270000002 cycles: 78016802 heartbeat IPC: 1.796 cumulative IPC: 3.358 (Simulation time: 02 hr 11 min 08 sec)
Heartbeat CPU 0 instructions: 280000000 cycles: 86871754 heartbeat IPC: 1.129 cumulative IPC: 3.093 (Simulation time: 02 hr 20 min 11 sec)
Heartbeat CPU 0 instructions: 290000000 cycles: 94035685 heartbeat IPC: 1.396 cumulative IPC: 2.943 (Simulation time: 02 hr 28 min 06 sec)
Heartbeat CPU 0 instructions: 300000003 cycles: 99168602 heartbeat IPC: 1.948 cumulative IPC: 2.885 (Simulation time: 02 hr 34 min 50 sec)
Heartbeat CPU 0 instructions: 310000001 cycles: 107886435 heartbeat IPC: 1.147 cumulative IPC: 2.726 (Simulation time: 02 hr 44 min 02 sec)
Heartbeat CPU 0 instructions: 320000004 cycles: 111713650 heartbeat IPC: 2.613 cumulative IPC: 2.721 (Simulation time: 02 hr 49 min 49 sec)
Heartbeat CPU 0 instructions: 330000000 cycles: 114907194 heartbeat IPC: 3.131 cumulative IPC: 2.734 (Simulation time: 02 hr 54 min 59 sec)
Heartbeat CPU 0 instructions: 340000001 cycles: 118108098 heartbeat IPC: 3.124 cumulative IPC: 2.746 (Simulation time: 03 hr 00 min 06 sec)
Heartbeat CPU 0 instructions: 350000000 cycles: 121458202 heartbeat IPC: 2.985 cumulative IPC: 2.753 (Simulation time: 03 hr 05 min 24 sec)
Heartbeat CPU 0 instructions: 360000004 cycles: 124613630 heartbeat IPC: 3.169 cumulative IPC: 2.765 (Simulation time: 03 hr 10 min 32 sec)
Heartbeat CPU 0 instructions: 370000001 cycles: 127716230 heartbeat IPC: 3.223 cumulative IPC: 2.777 (Simulation time: 03 hr 15 min 41 sec)
Heartbeat CPU 0 instructions: 380000004 cycles: 130836823 heartbeat IPC: 3.205 cumulative IPC: 2.789 (Simulation time: 03 hr 20 min 50 sec)
Heartbeat CPU 0 instructions: 390000002 cycles: 134118186 heartbeat IPC: 3.048 cumulative IPC: 2.796 (Simulation time: 03 hr 26 min 02 sec)
Heartbeat CPU 0 instructions: 400000000 cycles: 137435490 heartbeat IPC: 3.014 cumulative IPC: 2.801 (Simulation time: 03 hr 31 min 18 sec)
Heartbeat CPU 0 instructions: 410000000 cycles: 143513334 heartbeat IPC: 1.645 cumulative IPC: 2.748 (Simulation time: 03 hr 38 min 27 sec)
Heartbeat CPU 0 instructions: 420000003 cycles: 152081496 heartbeat IPC: 1.167 cumulative IPC: 2.651 (Simulation time: 03 hr 47 min 22 sec)
Heartbeat CPU 0 instructions: 430000004 cycles: 157570724 heartbeat IPC: 1.822 cumulative IPC: 2.619 (Simulation time: 03 hr 54 min 22 sec)
Heartbeat CPU 0 instructions: 440000004 cycles: 162404674 heartbeat IPC: 2.069 cumulative IPC: 2.602 (Simulation time: 04 hr 00 min 55 sec)
Heartbeat CPU 0 instructions: 450000000 cycles: 166985339 heartbeat IPC: 2.183 cumulative IPC: 2.589 (Simulation time: 04 hr 07 min 14 sec)
Heartbeat CPU 0 instructions: 460000002 cycles: 175391206 heartbeat IPC: 1.19 cumulative IPC: 2.517 (Simulation time: 04 hr 16 min 09 sec)
Heartbeat CPU 0 instructions: 470000003 cycles: 183331328 heartbeat IPC: 1.259 cumulative IPC: 2.459 (Simulation time: 04 hr 24 min 41 sec)
Heartbeat CPU 0 instructions: 480000000 cycles: 186779643 heartbeat IPC: 2.9 cumulative IPC: 2.467 (Simulation time: 04 hr 30 min 03 sec)
Heartbeat CPU 0 instructions: 490000001 cycles: 190446067 heartbeat IPC: 2.727 cumulative IPC: 2.473 (Simulation time: 04 hr 35 min 35 sec)
Heartbeat CPU 0 instructions: 500000002 cycles: 193975235 heartbeat IPC: 2.834 cumulative IPC: 2.48 (Simulation time: 04 hr 41 min 01 sec)
Heartbeat CPU 0 instructions: 510000000 cycles: 197459221 heartbeat IPC: 2.87 cumulative IPC: 2.487 (Simulation time: 04 hr 46 min 21 sec)
Heartbeat CPU 0 instructions: 520000000 cycles: 200988289 heartbeat IPC: 2.834 cumulative IPC: 2.494 (Simulation time: 04 hr 51 min 44 sec)
Heartbeat CPU 0 instructions: 530000001 cycles: 209756232 heartbeat IPC: 1.141 cumulative IPC: 2.433 (Simulation time: 05 hr 00 min 43 sec)
Heartbeat CPU 0 instructions: 540000000 cycles: 218392935 heartbeat IPC: 1.158 cumulative IPC: 2.38 (Simulation time: 05 hr 09 min 42 sec)
Heartbeat CPU 0 instructions: 550000004 cycles: 228456078 heartbeat IPC: 0.9937 cumulative IPC: 2.315 (Simulation time: 05 hr 19 min 40 sec)
Heartbeat CPU 0 instructions: 560000004 cycles: 232223825 heartbeat IPC: 2.654 cumulative IPC: 2.321 (Simulation time: 05 hr 25 min 08 sec)
Heartbeat CPU 0 instructions: 570000002 cycles: 235049514 heartbeat IPC: 3.539 cumulative IPC: 2.337 (Simulation time: 05 hr 30 min 03 sec)
Heartbeat CPU 0 instructions: 580000000 cycles: 237982567 heartbeat IPC: 3.409 cumulative IPC: 2.351 (Simulation time: 05 hr 34 min 57 sec)
Heartbeat CPU 0 instructions: 590000001 cycles: 240920170 heartbeat IPC: 3.404 cumulative IPC: 2.364 (Simulation time: 05 hr 40 min 11 sec)
Heartbeat CPU 0 instructions: 600000003 cycles: 243620114 heartbeat IPC: 3.704 cumulative IPC: 2.38 (Simulation time: 05 hr 45 min 06 sec)
Heartbeat CPU 0 instructions: 610000001 cycles: 246492645 heartbeat IPC: 3.481 cumulative IPC: 2.393 (Simulation time: 05 hr 49 min 56 sec)
Heartbeat CPU 0 instructions: 620000004 cycles: 249451171 heartbeat IPC: 3.38 cumulative IPC: 2.406 (Simulation time: 05 hr 55 min 03 sec)
Heartbeat CPU 0 instructions: 630000002 cycles: 252262614 heartbeat IPC: 3.557 cumulative IPC: 2.419 (Simulation time: 05 hr 59 min 56 sec)
Heartbeat CPU 0 instructions: 640000004 cycles: 255313431 heartbeat IPC: 3.278 cumulative IPC: 2.43 (Simulation time: 06 hr 05 min 15 sec)
Heartbeat CPU 0 instructions: 650000001 cycles: 258021745 heartbeat IPC: 3.692 cumulative IPC: 2.444 (Simulation time: 06 hr 10 min 17 sec)
Simulation finished CPU 0 instructions: 600000001 cycles: 245521684 cumulative IPC: 2.444 (Simulation time: 06 hr 10 min 17 sec)
Simulation complete CPU 0 instructions: 600000001 cycles: 245521684 cumulative IPC: 2.444 (Simulation time: 06 hr 10 min 17 sec)

ChampSim completed all CPUs

=== Simulation ===
CPU 0 runs traces/400.perlbench-50B.champsimtrace.xz
Region of Interest Statistics

CPU 0 cumulative IPC: 2.444 instructions: 600000001 cycles: 245521684
CPU 0 Branch Prediction Accuracy: 99.01% MPKI: 2.04 Average ROB Occupancy at Mispredict: 93.61
Branch type MPKI
BRANCH_DIRECT_JUMP: 0.0176
BRANCH_INDIRECT: 0.38
BRANCH_CONDITIONAL: 1.19
BRANCH_DIRECT_CALL: 0.0067
BRANCH_INDIRECT_CALL: 0.431
BRANCH_RETURN: 0.0161

LLC TOTAL        ACCESS:     890312 HIT:     383542 MISS:     506770
LLC LOAD         ACCESS:     377689 HIT:     148174 MISS:     229515
LLC RFO          ACCESS:      32729 HIT:      12414 MISS:      20315
LLC PREFETCH     ACCESS:     377689 HIT:     134641 MISS:     243048
LLC WRITE        ACCESS:      83950 HIT:      82650 MISS:       1300
LLC TRANSLATION  ACCESS:      18255 HIT:       5663 MISS:      12592
LLC PREFETCH REQUESTED:     377689 ISSUED:     377689 USEFUL:      91172 USELESS:      84328
LLC AVERAGE MISS LATENCY: 635 cycles
cpu0_DTLB TOTAL        ACCESS:  133177379 HIT:  131827371 MISS:    1350008
cpu0_DTLB LOAD         ACCESS:  133177379 HIT:  131827371 MISS:    1350008
cpu0_DTLB RFO          ACCESS:          0 HIT:          0 MISS:          0
cpu0_DTLB PREFETCH     ACCESS:          0 HIT:          0 MISS:          0
cpu0_DTLB WRITE        ACCESS:          0 HIT:          0 MISS:          0
cpu0_DTLB TRANSLATION  ACCESS:          0 HIT:          0 MISS:          0
cpu0_DTLB PREFETCH REQUESTED:          0 ISSUED:          0 USEFUL:          0 USELESS:          0
cpu0_DTLB AVERAGE MISS LATENCY: 12.89 cycles
cpu0_ITLB TOTAL        ACCESS:    8990809 HIT:    8780435 MISS:     210374
cpu0_ITLB LOAD         ACCESS:    8990809 HIT:    8780435 MISS:     210374
cpu0_ITLB RFO          ACCESS:          0 HIT:          0 MISS:          0
cpu0_ITLB PREFETCH     ACCESS:          0 HIT:          0 MISS:          0
cpu0_ITLB WRITE        ACCESS:          0 HIT:          0 MISS:          0
cpu0_ITLB TRANSLATION  ACCESS:          0 HIT:          0 MISS:          0
cpu0_ITLB PREFETCH REQUESTED:          0 ISSUED:          0 USEFUL:          0 USELESS:          0
cpu0_ITLB AVERAGE MISS LATENCY: 3.325 cycles
cpu0_L1D TOTAL        ACCESS:  178257959 HIT:  175322652 MISS:    2935307
cpu0_L1D LOAD         ACCESS:   92739768 HIT:   90331794 MISS:    2407974
cpu0_L1D RFO          ACCESS:          0 HIT:          0 MISS:          0
cpu0_L1D PREFETCH     ACCESS:          0 HIT:          0 MISS:          0
cpu0_L1D WRITE        ACCESS:   85489664 HIT:   84988847 MISS:     500817
cpu0_L1D TRANSLATION  ACCESS:      28527 HIT:       2011 MISS:      26516
cpu0_L1D PREFETCH REQUESTED:          0 ISSUED:          0 USEFUL:          0 USELESS:          0
cpu0_L1D AVERAGE MISS LATENCY: 64.27 cycles
cpu0_L1I TOTAL        ACCESS:   10510529 HIT:    8610536 MISS:    1899993
cpu0_L1I LOAD         ACCESS:   10510529 HIT:    8610536 MISS:    1899993
cpu0_L1I RFO          ACCESS:          0 HIT:          0 MISS:          0
cpu0_L1I PREFETCH     ACCESS:          0 HIT:          0 MISS:          0
cpu0_L1I WRITE        ACCESS:          0 HIT:          0 MISS:          0
cpu0_L1I TRANSLATION  ACCESS:          0 HIT:          0 MISS:          0
cpu0_L1I PREFETCH REQUESTED:          0 ISSUED:          0 USEFUL:          0 USELESS:          0
cpu0_L1I AVERAGE MISS LATENCY: 10.37 cycles
cpu0_L2C TOTAL        ACCESS:    3236047 HIT:    2806444 MISS:     429603
cpu0_L2C LOAD         ACCESS:    2709154 HIT:    2331465 MISS:     377689
cpu0_L2C RFO          ACCESS:     135528 HIT:     102799 MISS:      32729
cpu0_L2C PREFETCH     ACCESS:          0 HIT:          0 MISS:          0
cpu0_L2C WRITE        ACCESS:     364927 HIT:     363997 MISS:        930
cpu0_L2C TRANSLATION  ACCESS:      26438 HIT:       8183 MISS:      18255
cpu0_L2C PREFETCH REQUESTED:          0 ISSUED:          0 USEFUL:          0 USELESS:          0
cpu0_L2C AVERAGE MISS LATENCY: 450.8 cycles
cpu0_STLB TOTAL        ACCESS:    1009854 HIT:     983164 MISS:      26690
cpu0_STLB LOAD         ACCESS:    1009854 HIT:     983164 MISS:      26690
cpu0_STLB RFO          ACCESS:          0 HIT:          0 MISS:          0
cpu0_STLB PREFETCH     ACCESS:          0 HIT:          0 MISS:          0
cpu0_STLB WRITE        ACCESS:          0 HIT:          0 MISS:          0
cpu0_STLB TRANSLATION  ACCESS:          0 HIT:          0 MISS:          0
cpu0_STLB PREFETCH REQUESTED:          0 ISSUED:          0 USEFUL:          0 USELESS:          0
cpu0_STLB AVERAGE MISS LATENCY: 455 cycles

DRAM Statistics

Channel 0 RQ ROW_BUFFER_HIT:      89921
  ROW_BUFFER_MISS:     329097
 AVG DBUS CONGESTED CYCLE: 3.898
WQ ROW_BUFFER_HIT: Channel 0 
  ROW_BUFFER_MISS:       4526
  FULL:      49883
