WARNING: physical memory size is smaller than virtual memory size.

*** ChampSim Multicore Out-of-Order Simulator ***
Warmup Instructions: 50000000
Simulation Instructions: 600000000
Number of CPUs: 1
Page size: 4096

Initialize SIGNATURE TABLE
ST_SET: 1
ST_WAY: 256
ST_TAG_BIT: 16
ST_TAG_MASK: ffff

Initialize PATTERN TABLE
PT_SET: 512
PT_WAY: 4
SIG_DELTA_BIT: 7
C_SIG_BIT: 4
C_DELTA_BIT: 4

Initialize PREFETCH FILTER
FILTER_SET: 1024
Off-chip DRAM Size: 4 GiB Channels: 1 Width: 64-bit Data Race: 3200 MT/s
Heartbeat CPU 0 instructions: 10000001 cycles: 2500318 heartbeat IPC: 3.999 cumulative IPC: 3.999 (Simulation time: 00 hr 03 min 50 sec)
Heartbeat CPU 0 instructions: 20000002 cycles: 5037082 heartbeat IPC: 3.942 cumulative IPC: 3.971 (Simulation time: 00 hr 07 min 44 sec)
Heartbeat CPU 0 instructions: 30000002 cycles: 7537082 heartbeat IPC: 4 cumulative IPC: 3.98 (Simulation time: 00 hr 11 min 17 sec)
Heartbeat CPU 0 instructions: 40000002 cycles: 10037082 heartbeat IPC: 4 cumulative IPC: 3.985 (Simulation time: 00 hr 14 min 51 sec)
Heartbeat CPU 0 instructions: 50000002 cycles: 12537082 heartbeat IPC: 4 cumulative IPC: 3.988 (Simulation time: 00 hr 18 min 24 sec)
Warmup finished CPU 0 instructions: 50000002 cycles: 12537083 cumulative IPC: 3.988 (Simulation time: 00 hr 18 min 24 sec)
Warmup complete CPU 0 instructions: 50000002 cycles: 12537083 cumulative IPC: 3.988 (Simulation time: 00 hr 18 min 24 sec)
Heartbeat CPU 0 instructions: 60000000 cycles: 16996069 heartbeat IPC: 2.243 cumulative IPC: 2.243 (Simulation time: 00 hr 23 min 30 sec)
Heartbeat CPU 0 instructions: 70000002 cycles: 21166505 heartbeat IPC: 2.398 cumulative IPC: 2.318 (Simulation time: 00 hr 28 min 27 sec)
Heartbeat CPU 0 instructions: 80000001 cycles: 25695217 heartbeat IPC: 2.208 cumulative IPC: 2.28 (Simulation time: 00 hr 33 min 35 sec)
Heartbeat CPU 0 instructions: 90000003 cycles: 29669522 heartbeat IPC: 2.516 cumulative IPC: 2.335 (Simulation time: 00 hr 38 min 27 sec)
Heartbeat CPU 0 instructions: 100000000 cycles: 33810968 heartbeat IPC: 2.415 cumulative IPC: 2.35 (Simulation time: 00 hr 43 min 23 sec)
Heartbeat CPU 0 instructions: 110000000 cycles: 37962605 heartbeat IPC: 2.409 cumulative IPC: 2.36 (Simulation time: 00 hr 48 min 26 sec)
Heartbeat CPU 0 instructions: 120000001 cycles: 41943237 heartbeat IPC: 2.512 cumulative IPC: 2.38 (Simulation time: 00 hr 53 min 17 sec)
Heartbeat CPU 0 instructions: 130000001 cycles: 45704881 heartbeat IPC: 2.658 cumulative IPC: 2.412 (Simulation time: 00 hr 58 min 02 sec)
Heartbeat CPU 0 instructions: 140000001 cycles: 49893585 heartbeat IPC: 2.387 cumulative IPC: 2.409 (Simulation time: 01 hr 03 min 00 sec)
Heartbeat CPU 0 instructions: 150000001 cycles: 54077918 heartbeat IPC: 2.39 cumulative IPC: 2.407 (Simulation time: 01 hr 07 min 59 sec)
Heartbeat CPU 0 instructions: 160000004 cycles: 58364268 heartbeat IPC: 2.333 cumulative IPC: 2.4 (Simulation time: 01 hr 13 min 03 sec)
Heartbeat CPU 0 instructions: 170000001 cycles: 69467766 heartbeat IPC: 0.9006 cumulative IPC: 2.108 (Simulation time: 01 hr 22 min 21 sec)
Heartbeat CPU 0 instructions: 180000004 cycles: 81547357 heartbeat IPC: 0.8278 cumulative IPC: 1.884 (Simulation time: 01 hr 32 min 30 sec)
Heartbeat CPU 0 instructions: 190000001 cycles: 92994077 heartbeat IPC: 0.8736 cumulative IPC: 1.74 (Simulation time: 01 hr 42 min 10 sec)
Heartbeat CPU 0 instructions: 200000004 cycles: 96937260 heartbeat IPC: 2.536 cumulative IPC: 1.777 (Simulation time: 01 hr 47 min 04 sec)
Heartbeat CPU 0 instructions: 210000001 cycles: 100786323 heartbeat IPC: 2.598 cumulative IPC: 1.813 (Simulation time: 01 hr 51 min 54 sec)
Heartbeat CPU 0 instructions: 220000000 cycles: 104622252 heartbeat IPC: 2.607 cumulative IPC: 1.846 (Simulation time: 01 hr 56 min 41 sec)
Heartbeat CPU 0 instructions: 230000002 cycles: 109204515 heartbeat IPC: 2.182 cumulative IPC: 1.862 (Simulation time: 02 hr 01 min 52 sec)
Heartbeat CPU 0 instructions: 240000002 cycles: 113375791 heartbeat IPC: 2.397 cumulative IPC: 1.884 (Simulation time: 02 hr 06 min 49 sec)
Heartbeat CPU 0 instructions: 250000000 cycles: 117656008 heartbeat IPC: 2.336 cumulative IPC: 1.903 (Simulation time: 02 hr 11 min 52 sec)
Heartbeat CPU 0 instructions: 260000000 cycles: 121762186 heartbeat IPC: 2.435 cumulative IPC: 1.923 (Simulation time: 02 hr 16 min 49 sec)
Heartbeat CPU 0 instructions: 270000002 cycles: 125657660 heartbeat IPC: 2.567 cumulative IPC: 1.945 (Simulation time: 02 hr 21 min 35 sec)
Heartbeat CPU 0 instructions: 280000002 cycles: 129807178 heartbeat IPC: 2.41 cumulative IPC: 1.961 (Simulation time: 02 hr 26 min 27 sec)
Heartbeat CPU 0 instructions: 290000002 cycles: 133695425 heartbeat IPC: 2.572 cumulative IPC: 1.981 (Simulation time: 02 hr 31 min 17 sec)
Heartbeat CPU 0 instructions: 300000003 cycles: 137582563 heartbeat IPC: 2.573 cumulative IPC: 1.999 (Simulation time: 02 hr 36 min 11 sec)
Heartbeat CPU 0 instructions: 310000001 cycles: 141756332 heartbeat IPC: 2.396 cumulative IPC: 2.012 (Simulation time: 02 hr 41 min 09 sec)
Heartbeat CPU 0 instructions: 320000003 cycles: 145837534 heartbeat IPC: 2.45 cumulative IPC: 2.025 (Simulation time: 02 hr 46 min 03 sec)
Heartbeat CPU 0 instructions: 330000003 cycles: 150216135 heartbeat IPC: 2.284 cumulative IPC: 2.034 (Simulation time: 02 hr 51 min 06 sec)
Heartbeat CPU 0 instructions: 340000000 cycles: 161704191 heartbeat IPC: 0.8705 cumulative IPC: 1.944 (Simulation time: 03 hr 00 min 43 sec)
Heartbeat CPU 0 instructions: 350000000 cycles: 174169198 heartbeat IPC: 0.8022 cumulative IPC: 1.856 (Simulation time: 03 hr 11 min 05 sec)
Heartbeat CPU 0 instructions: 360000004 cycles: 185488549 heartbeat IPC: 0.8834 cumulative IPC: 1.792 (Simulation time: 03 hr 20 min 38 sec)
Heartbeat CPU 0 instructions: 370000001 cycles: 188984312 heartbeat IPC: 2.861 cumulative IPC: 1.814 (Simulation time: 03 hr 25 min 13 sec)
Heartbeat CPU 0 instructions: 380000001 cycles: 192428293 heartbeat IPC: 2.904 cumulative IPC: 1.834 (Simulation time: 03 hr 29 min 48 sec)
Heartbeat CPU 0 instructions: 390000004 cycles: 196019372 heartbeat IPC: 2.785 cumulative IPC: 1.853 (Simulation time: 03 hr 34 min 24 sec)
Heartbeat CPU 0 instructions: 400000004 cycles: 199578020 heartbeat IPC: 2.81 cumulative IPC: 1.871 (Simulation time: 03 hr 39 min 03 sec)
Heartbeat CPU 0 instructions: 410000001 cycles: 203361290 heartbeat IPC: 2.643 cumulative IPC: 1.887 (Simulation time: 03 hr 43 min 59 sec)
Heartbeat CPU 0 instructions: 420000002 cycles: 207533129 heartbeat IPC: 2.397 cumulative IPC: 1.897 (Simulation time: 03 hr 48 min 54 sec)
Heartbeat CPU 0 instructions: 430000001 cycles: 211149205 heartbeat IPC: 2.765 cumulative IPC: 1.913 (Simulation time: 03 hr 53 min 37 sec)
Heartbeat CPU 0 instructions: 440000004 cycles: 215117024 heartbeat IPC: 2.52 cumulative IPC: 1.925 (Simulation time: 03 hr 58 min 26 sec)
Heartbeat CPU 0 instructions: 450000002 cycles: 218648393 heartbeat IPC: 2.832 cumulative IPC: 1.941 (Simulation time: 04 hr 03 min 01 sec)
Heartbeat CPU 0 instructions: 460000000 cycles: 222202184 heartbeat IPC: 2.814 cumulative IPC: 1.955 (Simulation time: 04 hr 07 min 39 sec)
Heartbeat CPU 0 instructions: 470000001 cycles: 225700458 heartbeat IPC: 2.859 cumulative IPC: 1.97 (Simulation time: 04 hr 12 min 14 sec)
Heartbeat CPU 0 instructions: 480000003 cycles: 229469323 heartbeat IPC: 2.653 cumulative IPC: 1.982 (Simulation time: 04 hr 16 min 57 sec)
Heartbeat CPU 0 instructions: 490000000 cycles: 232976828 heartbeat IPC: 2.851 cumulative IPC: 1.996 (Simulation time: 04 hr 21 min 37 sec)
Heartbeat CPU 0 instructions: 500000004 cycles: 236617725 heartbeat IPC: 2.747 cumulative IPC: 2.008 (Simulation time: 04 hr 26 min 17 sec)
Heartbeat CPU 0 instructions: 510000003 cycles: 240335309 heartbeat IPC: 2.69 cumulative IPC: 2.019 (Simulation time: 04 hr 31 min 00 sec)
Heartbeat CPU 0 instructions: 520000000 cycles: 243733641 heartbeat IPC: 2.943 cumulative IPC: 2.033 (Simulation time: 04 hr 35 min 35 sec)
Heartbeat CPU 0 instructions: 530000002 cycles: 247455653 heartbeat IPC: 2.687 cumulative IPC: 2.043 (Simulation time: 04 hr 40 min 16 sec)
Heartbeat CPU 0 instructions: 540000000 cycles: 251003668 heartbeat IPC: 2.818 cumulative IPC: 2.055 (Simulation time: 04 hr 44 min 58 sec)
Heartbeat CPU 0 instructions: 550000001 cycles: 254684454 heartbeat IPC: 2.717 cumulative IPC: 2.065 (Simulation time: 04 hr 49 min 40 sec)
Heartbeat CPU 0 instructions: 560000004 cycles: 258610747 heartbeat IPC: 2.547 cumulative IPC: 2.073 (Simulation time: 04 hr 54 min 28 sec)
Heartbeat CPU 0 instructions: 570000004 cycles: 265677792 heartbeat IPC: 1.415 cumulative IPC: 2.054 (Simulation time: 05 hr 01 min 19 sec)
Heartbeat CPU 0 instructions: 580000003 cycles: 278455975 heartbeat IPC: 0.7826 cumulative IPC: 1.993 (Simulation time: 05 hr 11 min 53 sec)
Heartbeat CPU 0 instructions: 590000002 cycles: 293297979 heartbeat IPC: 0.6738 cumulative IPC: 1.923 (Simulation time: 05 hr 23 min 54 sec)
Heartbeat CPU 0 instructions: 600000000 cycles: 297072434 heartbeat IPC: 2.649 cumulative IPC: 1.933 (Simulation time: 05 hr 28 min 36 sec)
Heartbeat CPU 0 instructions: 610000002 cycles: 300879804 heartbeat IPC: 2.626 cumulative IPC: 1.942 (Simulation time: 05 hr 33 min 30 sec)
Heartbeat CPU 0 instructions: 620000001 cycles: 304296766 heartbeat IPC: 2.927 cumulative IPC: 1.954 (Simulation time: 05 hr 38 min 07 sec)
Heartbeat CPU 0 instructions: 630000002 cycles: 308451568 heartbeat IPC: 2.407 cumulative IPC: 1.96 (Simulation time: 05 hr 43 min 02 sec)
Heartbeat CPU 0 instructions: 640000001 cycles: 312220060 heartbeat IPC: 2.654 cumulative IPC: 1.969 (Simulation time: 05 hr 47 min 57 sec)
Heartbeat CPU 0 instructions: 650000000 cycles: 315891389 heartbeat IPC: 2.724 cumulative IPC: 1.978 (Simulation time: 05 hr 52 min 36 sec)
Simulation finished CPU 0 instructions: 600000001 cycles: 303354308 cumulative IPC: 1.978 (Simulation time: 05 hr 52 min 36 sec)
Simulation complete CPU 0 instructions: 600000001 cycles: 303354308 cumulative IPC: 1.978 (Simulation time: 05 hr 52 min 36 sec)

ChampSim completed all CPUs

=== Simulation ===
CPU 0 runs traces/400.perlbench-41B.champsimtrace.xz
Region of Interest Statistics

CPU 0 cumulative IPC: 1.978 instructions: 600000001 cycles: 303354308
CPU 0 Branch Prediction Accuracy: 96.64% MPKI: 6.948 Average ROB Occupancy at Mispredict: 46
Branch type MPKI
BRANCH_DIRECT_JUMP: 0.0123
BRANCH_INDIRECT: 0.323
BRANCH_CONDITIONAL: 6.4
BRANCH_DIRECT_CALL: 0.0043
BRANCH_INDIRECT_CALL: 0.2
BRANCH_RETURN: 0.00828

LLC TOTAL        ACCESS:     721410 HIT:     200204 MISS:     521206
LLC LOAD         ACCESS:     309786 HIT:      63318 MISS:     246468
LLC RFO          ACCESS:      25085 HIT:       8346 MISS:      16739
LLC PREFETCH     ACCESS:     306241 HIT:      59778 MISS:     246463
LLC WRITE        ACCESS:      64444 HIT:      63326 MISS:       1118
LLC TRANSLATION  ACCESS:      15854 HIT:       5436 MISS:      10418
LLC PREFETCH REQUESTED:     306241 ISSUED:     306241 USEFUL:       3466 USELESS:        294
LLC AVERAGE MISS LATENCY: 305.1 cycles
cpu0_DTLB TOTAL        ACCESS:  141354012 HIT:  140678866 MISS:     675146
cpu0_DTLB LOAD         ACCESS:  141354012 HIT:  140678866 MISS:     675146
cpu0_DTLB RFO          ACCESS:          0 HIT:          0 MISS:          0
cpu0_DTLB PREFETCH     ACCESS:          0 HIT:          0 MISS:          0
cpu0_DTLB WRITE        ACCESS:          0 HIT:          0 MISS:          0
cpu0_DTLB TRANSLATION  ACCESS:          0 HIT:          0 MISS:          0
cpu0_DTLB PREFETCH REQUESTED:          0 ISSUED:          0 USEFUL:          0 USELESS:          0
cpu0_DTLB AVERAGE MISS LATENCY: 15.75 cycles
cpu0_ITLB TOTAL        ACCESS:    4856995 HIT:    4810283 MISS:      46712
cpu0_ITLB LOAD         ACCESS:    4856995 HIT:    4810283 MISS:      46712
cpu0_ITLB RFO          ACCESS:          0 HIT:          0 MISS:          0
cpu0_ITLB PREFETCH     ACCESS:          0 HIT:          0 MISS:          0
cpu0_ITLB WRITE        ACCESS:          0 HIT:          0 MISS:          0
cpu0_ITLB TRANSLATION  ACCESS:          0 HIT:          0 MISS:          0
cpu0_ITLB PREFETCH REQUESTED:          0 ISSUED:          0 USEFUL:          0 USELESS:          0
cpu0_ITLB AVERAGE MISS LATENCY: 9.969 cycles
cpu0_L1D TOTAL        ACCESS:  187997130 HIT:  186670265 MISS:    1326865
cpu0_L1D LOAD         ACCESS:  104671106 HIT:  103652299 MISS:    1018807
cpu0_L1D RFO          ACCESS:          0 HIT:          0 MISS:          0
cpu0_L1D PREFETCH     ACCESS:          0 HIT:          0 MISS:          0
cpu0_L1D WRITE        ACCESS:   83301556 HIT:   83016364 MISS:     285192
cpu0_L1D TRANSLATION  ACCESS:      24468 HIT:       1602 MISS:      22866
cpu0_L1D PREFETCH REQUESTED:          0 ISSUED:          0 USEFUL:          0 USELESS:          0
cpu0_L1D AVERAGE MISS LATENCY: 120 cycles
cpu0_L1I TOTAL        ACCESS:    5594510 HIT:    4874252 MISS:     720258
cpu0_L1I LOAD         ACCESS:    5594510 HIT:    4874252 MISS:     720258
cpu0_L1I RFO          ACCESS:          0 HIT:          0 MISS:          0
cpu0_L1I PREFETCH     ACCESS:          0 HIT:          0 MISS:          0
cpu0_L1I WRITE        ACCESS:          0 HIT:          0 MISS:          0
cpu0_L1I TRANSLATION  ACCESS:          0 HIT:          0 MISS:          0
cpu0_L1I PREFETCH REQUESTED:          0 ISSUED:          0 USEFUL:          0 USELESS:          0
cpu0_L1I AVERAGE MISS LATENCY: 15.23 cycles
cpu0_L2C TOTAL        ACCESS:    1381195 HIT:    1029603 MISS:     351592
cpu0_L2C LOAD         ACCESS:    1124993 HIT:     815207 MISS:     309786
cpu0_L2C RFO          ACCESS:      63685 HIT:      38600 MISS:      25085
cpu0_L2C PREFETCH     ACCESS:          0 HIT:          0 MISS:          0
cpu0_L2C WRITE        ACCESS:     169712 HIT:     168845 MISS:        867
cpu0_L2C TRANSLATION  ACCESS:      22805 HIT:       6951 MISS:      15854
cpu0_L2C PREFETCH REQUESTED:          0 ISSUED:          0 USEFUL:          0 USELESS:          0
cpu0_L2C AVERAGE MISS LATENCY: 465.9 cycles
cpu0_STLB TOTAL        ACCESS:     506006 HIT:     483215 MISS:      22791
cpu0_STLB LOAD         ACCESS:     506006 HIT:     483215 MISS:      22791
cpu0_STLB RFO          ACCESS:          0 HIT:          0 MISS:          0
cpu0_STLB PREFETCH     ACCESS:          0 HIT:          0 MISS:          0
cpu0_STLB WRITE        ACCESS:          0 HIT:          0 MISS:          0
cpu0_STLB TRANSLATION  ACCESS:          0 HIT:          0 MISS:          0
cpu0_STLB PREFETCH REQUESTED:          0 ISSUED:          0 USEFUL:          0 USELESS:          0
cpu0_STLB AVERAGE MISS LATENCY: 342.9 cycles

DRAM Statistics

Channel 0 RQ ROW_BUFFER_HIT:      73951
  ROW_BUFFER_MISS:     313589
 AVG DBUS CONGESTED CYCLE: 3.854
WQ ROW_BUFFER_HIT: Channel 0 
  ROW_BUFFER_MISS:       6528
  FULL:      38891
