WARNING: physical memory size is smaller than virtual memory size.

*** ChampSim Multicore Out-of-Order Simulator ***
Warmup Instructions: 50000000
Simulation Instructions: 600000000
Number of CPUs: 1
Page size: 4096

Off-chip DRAM Size: 4 GiB Channels: 1 Width: 64-bit Data Race: 3200 MT/s
Heartbeat CPU 0 instructions: 10000000 cycles: 2500061 heartbeat IPC: 4 cumulative IPC: 4 (Simulation time: 00 hr 03 min 19 sec)
Heartbeat CPU 0 instructions: 20000000 cycles: 5000061 heartbeat IPC: 4 cumulative IPC: 4 (Simulation time: 00 hr 06 min 38 sec)
Heartbeat CPU 0 instructions: 30000000 cycles: 7500061 heartbeat IPC: 4 cumulative IPC: 4 (Simulation time: 00 hr 09 min 55 sec)
Heartbeat CPU 0 instructions: 40000000 cycles: 10000061 heartbeat IPC: 4 cumulative IPC: 4 (Simulation time: 00 hr 13 min 10 sec)
Heartbeat CPU 0 instructions: 50000000 cycles: 12500061 heartbeat IPC: 4 cumulative IPC: 4 (Simulation time: 00 hr 16 min 20 sec)
Warmup finished CPU 0 instructions: 50000000 cycles: 12500062 cumulative IPC: 4 (Simulation time: 00 hr 16 min 20 sec)
Warmup complete CPU 0 instructions: 50000000 cycles: 12500062 cumulative IPC: 4 (Simulation time: 00 hr 16 min 20 sec)
Heartbeat CPU 0 instructions: 60000002 cycles: 16444059 heartbeat IPC: 2.535 cumulative IPC: 2.535 (Simulation time: 00 hr 20 min 38 sec)
Heartbeat CPU 0 instructions: 70000003 cycles: 20759418 heartbeat IPC: 2.317 cumulative IPC: 2.421 (Simulation time: 00 hr 24 min 42 sec)
Heartbeat CPU 0 instructions: 80000003 cycles: 25227156 heartbeat IPC: 2.238 cumulative IPC: 2.357 (Simulation time: 00 hr 28 min 33 sec)
Heartbeat CPU 0 instructions: 90000000 cycles: 28918806 heartbeat IPC: 2.709 cumulative IPC: 2.436 (Simulation time: 00 hr 32 min 02 sec)
Heartbeat CPU 0 instructions: 100000003 cycles: 32815684 heartbeat IPC: 2.566 cumulative IPC: 2.461 (Simulation time: 00 hr 35 min 31 sec)
Heartbeat CPU 0 instructions: 110000002 cycles: 36916725 heartbeat IPC: 2.438 cumulative IPC: 2.457 (Simulation time: 00 hr 38 min 53 sec)
Heartbeat CPU 0 instructions: 120000001 cycles: 40632503 heartbeat IPC: 2.691 cumulative IPC: 2.488 (Simulation time: 00 hr 42 min 01 sec)
Heartbeat CPU 0 instructions: 130000003 cycles: 44402470 heartbeat IPC: 2.653 cumulative IPC: 2.508 (Simulation time: 00 hr 45 min 09 sec)
Heartbeat CPU 0 instructions: 140000002 cycles: 48535204 heartbeat IPC: 2.42 cumulative IPC: 2.498 (Simulation time: 00 hr 48 min 16 sec)
Heartbeat CPU 0 instructions: 150000001 cycles: 52587469 heartbeat IPC: 2.468 cumulative IPC: 2.495 (Simulation time: 00 hr 51 min 14 sec)
Heartbeat CPU 0 instructions: 160000000 cycles: 56245523 heartbeat IPC: 2.734 cumulative IPC: 2.515 (Simulation time: 00 hr 54 min 05 sec)
Heartbeat CPU 0 instructions: 170000001 cycles: 60418847 heartbeat IPC: 2.396 cumulative IPC: 2.504 (Simulation time: 00 hr 57 min 12 sec)
Heartbeat CPU 0 instructions: 180000001 cycles: 63878543 heartbeat IPC: 2.89 cumulative IPC: 2.53 (Simulation time: 00 hr 59 min 58 sec)
Heartbeat CPU 0 instructions: 190000002 cycles: 67461907 heartbeat IPC: 2.791 cumulative IPC: 2.547 (Simulation time: 01 hr 02 min 49 sec)
Heartbeat CPU 0 instructions: 200000002 cycles: 71245565 heartbeat IPC: 2.643 cumulative IPC: 2.553 (Simulation time: 01 hr 05 min 51 sec)
Heartbeat CPU 0 instructions: 210000000 cycles: 74884203 heartbeat IPC: 2.748 cumulative IPC: 2.565 (Simulation time: 01 hr 08 min 43 sec)
Heartbeat CPU 0 instructions: 220000001 cycles: 78749236 heartbeat IPC: 2.587 cumulative IPC: 2.566 (Simulation time: 01 hr 11 min 33 sec)
Heartbeat CPU 0 instructions: 230000002 cycles: 82589077 heartbeat IPC: 2.604 cumulative IPC: 2.568 (Simulation time: 01 hr 14 min 22 sec)
Heartbeat CPU 0 instructions: 240000001 cycles: 86793078 heartbeat IPC: 2.379 cumulative IPC: 2.557 (Simulation time: 01 hr 17 min 18 sec)
Heartbeat CPU 0 instructions: 250000003 cycles: 91357919 heartbeat IPC: 2.191 cumulative IPC: 2.536 (Simulation time: 01 hr 20 min 26 sec)
Heartbeat CPU 0 instructions: 260000000 cycles: 95150497 heartbeat IPC: 2.637 cumulative IPC: 2.541 (Simulation time: 01 hr 23 min 21 sec)
Heartbeat CPU 0 instructions: 270000003 cycles: 102242687 heartbeat IPC: 1.41 cumulative IPC: 2.451 (Simulation time: 01 hr 27 min 45 sec)
Heartbeat CPU 0 instructions: 280000000 cycles: 112893964 heartbeat IPC: 0.9389 cumulative IPC: 2.291 (Simulation time: 01 hr 33 min 36 sec)
Heartbeat CPU 0 instructions: 290000000 cycles: 122464621 heartbeat IPC: 1.045 cumulative IPC: 2.183 (Simulation time: 01 hr 38 min 58 sec)
Heartbeat CPU 0 instructions: 300000003 cycles: 129752238 heartbeat IPC: 1.372 cumulative IPC: 2.132 (Simulation time: 01 hr 43 min 33 sec)
Heartbeat CPU 0 instructions: 310000004 cycles: 140797814 heartbeat IPC: 0.9053 cumulative IPC: 2.027 (Simulation time: 01 hr 49 min 46 sec)
Heartbeat CPU 0 instructions: 320000004 cycles: 145871492 heartbeat IPC: 1.971 cumulative IPC: 2.024 (Simulation time: 01 hr 53 min 12 sec)
Heartbeat CPU 0 instructions: 330000000 cycles: 149936877 heartbeat IPC: 2.46 cumulative IPC: 2.037 (Simulation time: 01 hr 56 min 18 sec)
Heartbeat CPU 0 instructions: 340000001 cycles: 154187650 heartbeat IPC: 2.353 cumulative IPC: 2.047 (Simulation time: 01 hr 59 min 27 sec)
Heartbeat CPU 0 instructions: 350000004 cycles: 158564950 heartbeat IPC: 2.285 cumulative IPC: 2.054 (Simulation time: 02 hr 02 min 39 sec)
Heartbeat CPU 0 instructions: 360000003 cycles: 162632562 heartbeat IPC: 2.458 cumulative IPC: 2.065 (Simulation time: 02 hr 05 min 42 sec)
Heartbeat CPU 0 instructions: 370000001 cycles: 166624085 heartbeat IPC: 2.505 cumulative IPC: 2.076 (Simulation time: 02 hr 08 min 51 sec)
Heartbeat CPU 0 instructions: 380000004 cycles: 170469745 heartbeat IPC: 2.6 cumulative IPC: 2.089 (Simulation time: 02 hr 11 min 46 sec)
Heartbeat CPU 0 instructions: 390000002 cycles: 174511510 heartbeat IPC: 2.474 cumulative IPC: 2.099 (Simulation time: 02 hr 14 min 55 sec)
Heartbeat CPU 0 instructions: 400000000 cycles: 178798322 heartbeat IPC: 2.333 cumulative IPC: 2.105 (Simulation time: 02 hr 18 min 09 sec)
Heartbeat CPU 0 instructions: 410000000 cycles: 186028690 heartbeat IPC: 1.383 cumulative IPC: 2.075 (Simulation time: 02 hr 22 min 27 sec)
Heartbeat CPU 0 instructions: 420000003 cycles: 196159150 heartbeat IPC: 0.9871 cumulative IPC: 2.015 (Simulation time: 02 hr 28 min 07 sec)
Heartbeat CPU 0 instructions: 430000000 cycles: 203557400 heartbeat IPC: 1.352 cumulative IPC: 1.989 (Simulation time: 02 hr 32 min 47 sec)
Heartbeat CPU 0 instructions: 440000004 cycles: 210795223 heartbeat IPC: 1.382 cumulative IPC: 1.967 (Simulation time: 02 hr 37 min 17 sec)
Heartbeat CPU 0 instructions: 450000000 cycles: 217731699 heartbeat IPC: 1.442 cumulative IPC: 1.949 (Simulation time: 02 hr 41 min 43 sec)
Heartbeat CPU 0 instructions: 460000002 cycles: 228998710 heartbeat IPC: 0.8875 cumulative IPC: 1.894 (Simulation time: 02 hr 47 min 51 sec)
Heartbeat CPU 0 instructions: 470000003 cycles: 238589662 heartbeat IPC: 1.043 cumulative IPC: 1.858 (Simulation time: 02 hr 53 min 20 sec)
Heartbeat CPU 0 instructions: 480000003 cycles: 242847841 heartbeat IPC: 2.348 cumulative IPC: 1.867 (Simulation time: 02 hr 56 min 29 sec)
Heartbeat CPU 0 instructions: 490000001 cycles: 247396603 heartbeat IPC: 2.198 cumulative IPC: 1.873 (Simulation time: 02 hr 59 min 47 sec)
Heartbeat CPU 0 instructions: 500000002 cycles: 251759859 heartbeat IPC: 2.292 cumulative IPC: 1.881 (Simulation time: 03 hr 02 min 56 sec)
Heartbeat CPU 0 instructions: 510000000 cycles: 255889762 heartbeat IPC: 2.421 cumulative IPC: 1.89 (Simulation time: 03 hr 06 min 06 sec)
Heartbeat CPU 0 instructions: 520000000 cycles: 260196378 heartbeat IPC: 2.322 cumulative IPC: 1.897 (Simulation time: 03 hr 09 min 21 sec)
Heartbeat CPU 0 instructions: 530000001 cycles: 270868299 heartbeat IPC: 0.937 cumulative IPC: 1.858 (Simulation time: 03 hr 15 min 00 sec)
Heartbeat CPU 0 instructions: 540000000 cycles: 281467591 heartbeat IPC: 0.9435 cumulative IPC: 1.822 (Simulation time: 03 hr 20 min 51 sec)
Heartbeat CPU 0 instructions: 550000004 cycles: 293838920 heartbeat IPC: 0.8083 cumulative IPC: 1.777 (Simulation time: 03 hr 27 min 07 sec)
Heartbeat CPU 0 instructions: 560000004 cycles: 298160640 heartbeat IPC: 2.314 cumulative IPC: 1.785 (Simulation time: 03 hr 30 min 07 sec)
Heartbeat CPU 0 instructions: 570000001 cycles: 301290562 heartbeat IPC: 3.195 cumulative IPC: 1.801 (Simulation time: 03 hr 32 min 45 sec)
Heartbeat CPU 0 instructions: 580000003 cycles: 304829255 heartbeat IPC: 2.826 cumulative IPC: 1.813 (Simulation time: 03 hr 35 min 29 sec)
Heartbeat CPU 0 instructions: 590000002 cycles: 308450219 heartbeat IPC: 2.762 cumulative IPC: 1.825 (Simulation time: 03 hr 38 min 22 sec)
Heartbeat CPU 0 instructions: 600000003 cycles: 311511231 heartbeat IPC: 3.267 cumulative IPC: 1.839 (Simulation time: 03 hr 40 min 53 sec)
Heartbeat CPU 0 instructions: 610000001 cycles: 315019204 heartbeat IPC: 2.851 cumulative IPC: 1.851 (Simulation time: 03 hr 43 min 14 sec)
Heartbeat CPU 0 instructions: 620000000 cycles: 319032255 heartbeat IPC: 2.492 cumulative IPC: 1.86 (Simulation time: 03 hr 45 min 33 sec)
Heartbeat CPU 0 instructions: 630000002 cycles: 322398963 heartbeat IPC: 2.97 cumulative IPC: 1.872 (Simulation time: 03 hr 47 min 42 sec)
Heartbeat CPU 0 instructions: 640000004 cycles: 326406756 heartbeat IPC: 2.495 cumulative IPC: 1.88 (Simulation time: 03 hr 49 min 55 sec)
Heartbeat CPU 0 instructions: 650000001 cycles: 330227740 heartbeat IPC: 2.617 cumulative IPC: 1.888 (Simulation time: 03 hr 51 min 37 sec)
Simulation finished CPU 0 instructions: 600000001 cycles: 317727679 cumulative IPC: 1.888 (Simulation time: 03 hr 51 min 37 sec)
Simulation complete CPU 0 instructions: 600000001 cycles: 317727679 cumulative IPC: 1.888 (Simulation time: 03 hr 51 min 37 sec)

ChampSim completed all CPUs

=== Simulation ===
CPU 0 runs traces/400.perlbench-50B.champsimtrace.xz
Region of Interest Statistics

CPU 0 cumulative IPC: 1.888 instructions: 600000001 cycles: 317727679
CPU 0 Branch Prediction Accuracy: 96.2% MPKI: 7.839 Average ROB Occupancy at Mispredict: 43.35
Branch type MPKI
BRANCH_DIRECT_JUMP: 0.0176
BRANCH_INDIRECT: 0.38
BRANCH_CONDITIONAL: 6.99
BRANCH_DIRECT_CALL: 0.0067
BRANCH_INDIRECT_CALL: 0.431
BRANCH_RETURN: 0.0161

LLC TOTAL        ACCESS:     566014 HIT:     256817 MISS:     309197
LLC LOAD         ACCESS:     376590 HIT:     126337 MISS:     250253
LLC RFO          ACCESS:      32926 HIT:      19954 MISS:      12972
LLC PREFETCH     ACCESS:      54273 HIT:      36422 MISS:      17851
LLC WRITE        ACCESS:      83988 HIT:      70960 MISS:      13028
LLC TRANSLATION  ACCESS:      18237 HIT:       3144 MISS:      15093
LLC PREFETCH REQUESTED:      54273 ISSUED:      54273 USEFUL:       8111 USELESS:       6480
LLC AVERAGE MISS LATENCY: 467.3 cycles
cpu0_DTLB TOTAL        ACCESS:  146486407 HIT:  145183679 MISS:    1302728
cpu0_DTLB LOAD         ACCESS:  146486407 HIT:  145183679 MISS:    1302728
cpu0_DTLB RFO          ACCESS:          0 HIT:          0 MISS:          0
cpu0_DTLB PREFETCH     ACCESS:          0 HIT:          0 MISS:          0
cpu0_DTLB WRITE        ACCESS:          0 HIT:          0 MISS:          0
cpu0_DTLB TRANSLATION  ACCESS:          0 HIT:          0 MISS:          0
cpu0_DTLB PREFETCH REQUESTED:          0 ISSUED:          0 USEFUL:          0 USELESS:          0
cpu0_DTLB AVERAGE MISS LATENCY: 12.76 cycles
cpu0_ITLB TOTAL        ACCESS:    8991260 HIT:    8806527 MISS:     184733
cpu0_ITLB LOAD         ACCESS:    8991260 HIT:    8806527 MISS:     184733
cpu0_ITLB RFO          ACCESS:          0 HIT:          0 MISS:          0
cpu0_ITLB PREFETCH     ACCESS:          0 HIT:          0 MISS:          0
cpu0_ITLB WRITE        ACCESS:          0 HIT:          0 MISS:          0
cpu0_ITLB TRANSLATION  ACCESS:          0 HIT:          0 MISS:          0
cpu0_ITLB PREFETCH REQUESTED:          0 ISSUED:          0 USEFUL:          0 USELESS:          0
cpu0_ITLB AVERAGE MISS LATENCY: 3.637 cycles
cpu0_L1D TOTAL        ACCESS:  193302936 HIT:  190477882 MISS:    2825054
cpu0_L1D LOAD         ACCESS:  107455711 HIT:  105120558 MISS:    2335153
cpu0_L1D RFO          ACCESS:          0 HIT:          0 MISS:          0
cpu0_L1D PREFETCH     ACCESS:          0 HIT:          0 MISS:          0
cpu0_L1D WRITE        ACCESS:   85818696 HIT:   85355307 MISS:     463389
cpu0_L1D TRANSLATION  ACCESS:      28529 HIT:       2017 MISS:      26512
cpu0_L1D PREFETCH REQUESTED:          0 ISSUED:          0 USEFUL:          0 USELESS:          0
cpu0_L1D AVERAGE MISS LATENCY: 52.22 cycles
cpu0_L1I TOTAL        ACCESS:   10425142 HIT:    8661620 MISS:    1763522
cpu0_L1I LOAD         ACCESS:   10425142 HIT:    8661620 MISS:    1763522
cpu0_L1I RFO          ACCESS:          0 HIT:          0 MISS:          0
cpu0_L1I PREFETCH     ACCESS:          0 HIT:          0 MISS:          0
cpu0_L1I WRITE        ACCESS:          0 HIT:          0 MISS:          0
cpu0_L1I TRANSLATION  ACCESS:          0 HIT:          0 MISS:          0
cpu0_L1I PREFETCH REQUESTED:          0 ISSUED:          0 USEFUL:          0 USELESS:          0
cpu0_L1I AVERAGE MISS LATENCY: 11.3 cycles
cpu0_L2C TOTAL        ACCESS:    3232417 HIT:    2803730 MISS:     428687
cpu0_L2C LOAD         ACCESS:    2710094 HIT:    2333504 MISS:     376590
cpu0_L2C RFO          ACCESS:     133286 HIT:     100360 MISS:      32926
cpu0_L2C PREFETCH     ACCESS:          0 HIT:          0 MISS:          0
cpu0_L2C WRITE        ACCESS:     362596 HIT:     361662 MISS:        934
cpu0_L2C TRANSLATION  ACCESS:      26441 HIT:       8204 MISS:      18237
cpu0_L2C PREFETCH REQUESTED:          0 ISSUED:          0 USEFUL:          0 USELESS:          0
cpu0_L2C AVERAGE MISS LATENCY: 337.9 cycles
cpu0_STLB TOTAL        ACCESS:    1008321 HIT:     981627 MISS:      26694
cpu0_STLB LOAD         ACCESS:    1008321 HIT:     981627 MISS:      26694
cpu0_STLB RFO          ACCESS:          0 HIT:          0 MISS:          0
cpu0_STLB PREFETCH     ACCESS:          0 HIT:          0 MISS:          0
cpu0_STLB WRITE        ACCESS:          0 HIT:          0 MISS:          0
cpu0_STLB TRANSLATION  ACCESS:          0 HIT:          0 MISS:          0
cpu0_STLB PREFETCH REQUESTED:          0 ISSUED:          0 USEFUL:          0 USELESS:          0
cpu0_STLB AVERAGE MISS LATENCY: 406.4 cycles

DRAM Statistics

Channel 0 RQ ROW_BUFFER_HIT:      77489
  ROW_BUFFER_MISS:     214398
 AVG DBUS CONGESTED CYCLE: 3.732
WQ ROW_BUFFER_HIT: Channel 0 
  ROW_BUFFER_MISS:       5372
  FULL:       8241
