WARNING: physical memory size is smaller than virtual memory size.

*** ChampSim Multicore Out-of-Order Simulator ***
Warmup Instructions: 50000000
Simulation Instructions: 600000000
Number of CPUs: 1
Page size: 4096

Initialize SIGNATURE TABLE
ST_SET: 1
ST_WAY: 256
ST_TAG_BIT: 16
ST_TAG_MASK: ffff

Initialize PATTERN TABLE
PT_SET: 512
PT_WAY: 4
SIG_DELTA_BIT: 7
C_SIG_BIT: 4
C_DELTA_BIT: 4

Initialize PREFETCH FILTER
FILTER_SET: 1024
Off-chip DRAM Size: 4 GiB Channels: 1 Width: 64-bit Data Race: 3200 MT/s
Heartbeat CPU 0 instructions: 10000000 cycles: 2500061 heartbeat IPC: 4 cumulative IPC: 4 (Simulation time: 00 hr 03 min 25 sec)
Heartbeat CPU 0 instructions: 20000000 cycles: 5000061 heartbeat IPC: 4 cumulative IPC: 4 (Simulation time: 00 hr 06 min 45 sec)
Heartbeat CPU 0 instructions: 30000000 cycles: 7500061 heartbeat IPC: 4 cumulative IPC: 4 (Simulation time: 00 hr 10 min 06 sec)
Heartbeat CPU 0 instructions: 40000000 cycles: 10000061 heartbeat IPC: 4 cumulative IPC: 4 (Simulation time: 00 hr 13 min 29 sec)
Heartbeat CPU 0 instructions: 50000000 cycles: 12500061 heartbeat IPC: 4 cumulative IPC: 4 (Simulation time: 00 hr 16 min 53 sec)
Warmup finished CPU 0 instructions: 50000000 cycles: 12500062 cumulative IPC: 4 (Simulation time: 00 hr 16 min 53 sec)
Warmup complete CPU 0 instructions: 50000000 cycles: 12500062 cumulative IPC: 4 (Simulation time: 00 hr 16 min 53 sec)
Heartbeat CPU 0 instructions: 60000002 cycles: 16913136 heartbeat IPC: 2.266 cumulative IPC: 2.266 (Simulation time: 00 hr 21 min 53 sec)
Heartbeat CPU 0 instructions: 70000003 cycles: 21900385 heartbeat IPC: 2.005 cumulative IPC: 2.128 (Simulation time: 00 hr 27 min 04 sec)
Heartbeat CPU 0 instructions: 80000001 cycles: 27257275 heartbeat IPC: 1.867 cumulative IPC: 2.033 (Simulation time: 00 hr 32 min 44 sec)
Heartbeat CPU 0 instructions: 90000000 cycles: 31561570 heartbeat IPC: 2.323 cumulative IPC: 2.098 (Simulation time: 00 hr 37 min 38 sec)
Heartbeat CPU 0 instructions: 100000003 cycles: 36426791 heartbeat IPC: 2.055 cumulative IPC: 2.09 (Simulation time: 00 hr 42 min 49 sec)
Heartbeat CPU 0 instructions: 110000002 cycles: 41303248 heartbeat IPC: 2.051 cumulative IPC: 2.083 (Simulation time: 00 hr 47 min 57 sec)
Heartbeat CPU 0 instructions: 120000001 cycles: 46303885 heartbeat IPC: 2 cumulative IPC: 2.071 (Simulation time: 00 hr 53 min 12 sec)
Heartbeat CPU 0 instructions: 130000003 cycles: 50878902 heartbeat IPC: 2.186 cumulative IPC: 2.084 (Simulation time: 00 hr 58 min 16 sec)
Heartbeat CPU 0 instructions: 140000002 cycles: 55773152 heartbeat IPC: 2.043 cumulative IPC: 2.08 (Simulation time: 01 hr 03 min 26 sec)
Heartbeat CPU 0 instructions: 150000001 cycles: 60445632 heartbeat IPC: 2.14 cumulative IPC: 2.086 (Simulation time: 01 hr 08 min 30 sec)
Heartbeat CPU 0 instructions: 160000000 cycles: 65087806 heartbeat IPC: 2.154 cumulative IPC: 2.092 (Simulation time: 01 hr 13 min 31 sec)
Heartbeat CPU 0 instructions: 170000000 cycles: 70425162 heartbeat IPC: 1.874 cumulative IPC: 2.072 (Simulation time: 01 hr 18 min 55 sec)
Heartbeat CPU 0 instructions: 180000001 cycles: 76150752 heartbeat IPC: 1.747 cumulative IPC: 2.042 (Simulation time: 01 hr 24 min 36 sec)
Heartbeat CPU 0 instructions: 190000002 cycles: 80627377 heartbeat IPC: 2.234 cumulative IPC: 2.055 (Simulation time: 01 hr 29 min 38 sec)
Heartbeat CPU 0 instructions: 200000002 cycles: 85534375 heartbeat IPC: 2.038 cumulative IPC: 2.054 (Simulation time: 01 hr 34 min 50 sec)
Heartbeat CPU 0 instructions: 210000000 cycles: 90540329 heartbeat IPC: 1.998 cumulative IPC: 2.05 (Simulation time: 01 hr 40 min 17 sec)
Heartbeat CPU 0 instructions: 220000001 cycles: 95468905 heartbeat IPC: 2.029 cumulative IPC: 2.049 (Simulation time: 01 hr 45 min 28 sec)
Heartbeat CPU 0 instructions: 230000002 cycles: 100720405 heartbeat IPC: 1.904 cumulative IPC: 2.04 (Simulation time: 01 hr 50 min 51 sec)
Heartbeat CPU 0 instructions: 240000001 cycles: 105688676 heartbeat IPC: 2.013 cumulative IPC: 2.039 (Simulation time: 01 hr 56 min 06 sec)
Heartbeat CPU 0 instructions: 250000003 cycles: 110890025 heartbeat IPC: 1.923 cumulative IPC: 2.033 (Simulation time: 02 hr 01 min 22 sec)
Heartbeat CPU 0 instructions: 260000001 cycles: 115755414 heartbeat IPC: 2.055 cumulative IPC: 2.034 (Simulation time: 02 hr 06 min 33 sec)
Heartbeat CPU 0 instructions: 270000000 cycles: 123501755 heartbeat IPC: 1.291 cumulative IPC: 1.982 (Simulation time: 02 hr 13 min 38 sec)
Heartbeat CPU 0 instructions: 280000000 cycles: 136092450 heartbeat IPC: 0.7942 cumulative IPC: 1.861 (Simulation time: 02 hr 24 min 15 sec)
Heartbeat CPU 0 instructions: 290000001 cycles: 147991712 heartbeat IPC: 0.8404 cumulative IPC: 1.771 (Simulation time: 02 hr 34 min 20 sec)
Heartbeat CPU 0 instructions: 300000003 cycles: 155880536 heartbeat IPC: 1.268 cumulative IPC: 1.744 (Simulation time: 02 hr 41 min 55 sec)
Heartbeat CPU 0 instructions: 310000004 cycles: 168123829 heartbeat IPC: 0.8168 cumulative IPC: 1.671 (Simulation time: 02 hr 52 min 30 sec)
Heartbeat CPU 0 instructions: 320000004 cycles: 174073657 heartbeat IPC: 1.681 cumulative IPC: 1.671 (Simulation time: 02 hr 58 min 32 sec)
Heartbeat CPU 0 instructions: 330000000 cycles: 179369858 heartbeat IPC: 1.888 cumulative IPC: 1.678 (Simulation time: 03 hr 04 min 01 sec)
Heartbeat CPU 0 instructions: 340000001 cycles: 184487433 heartbeat IPC: 1.954 cumulative IPC: 1.686 (Simulation time: 03 hr 09 min 29 sec)
Heartbeat CPU 0 instructions: 350000000 cycles: 189787395 heartbeat IPC: 1.887 cumulative IPC: 1.692 (Simulation time: 03 hr 14 min 58 sec)
Heartbeat CPU 0 instructions: 360000003 cycles: 194727973 heartbeat IPC: 2.024 cumulative IPC: 1.701 (Simulation time: 03 hr 20 min 16 sec)
Heartbeat CPU 0 instructions: 370000001 cycles: 199538616 heartbeat IPC: 2.079 cumulative IPC: 1.711 (Simulation time: 03 hr 25 min 32 sec)
Heartbeat CPU 0 instructions: 380000004 cycles: 204585162 heartbeat IPC: 1.982 cumulative IPC: 1.718 (Simulation time: 03 hr 30 min 55 sec)
Heartbeat CPU 0 instructions: 390000002 cycles: 209645560 heartbeat IPC: 1.976 cumulative IPC: 1.725 (Simulation time: 03 hr 36 min 19 sec)
Heartbeat CPU 0 instructions: 400000000 cycles: 214696008 heartbeat IPC: 1.98 cumulative IPC: 1.731 (Simulation time: 03 hr 41 min 43 sec)
Heartbeat CPU 0 instructions: 410000000 cycles: 222196286 heartbeat IPC: 1.333 cumulative IPC: 1.717 (Simulation time: 03 hr 48 min 45 sec)
Heartbeat CPU 0 instructions: 420000001 cycles: 234035061 heartbeat IPC: 0.8447 cumulative IPC: 1.67 (Simulation time: 03 hr 58 min 46 sec)
Heartbeat CPU 0 instructions: 430000000 cycles: 241900076 heartbeat IPC: 1.271 cumulative IPC: 1.656 (Simulation time: 04 hr 06 min 23 sec)
Heartbeat CPU 0 instructions: 440000002 cycles: 250283702 heartbeat IPC: 1.193 cumulative IPC: 1.64 (Simulation time: 04 hr 14 min 11 sec)
Heartbeat CPU 0 instructions: 450000000 cycles: 257916657 heartbeat IPC: 1.31 cumulative IPC: 1.63 (Simulation time: 04 hr 21 min 34 sec)
Heartbeat CPU 0 instructions: 460000002 cycles: 271314654 heartbeat IPC: 0.7464 cumulative IPC: 1.584 (Simulation time: 04 hr 32 min 41 sec)
Heartbeat CPU 0 instructions: 470000000 cycles: 282352441 heartbeat IPC: 0.906 cumulative IPC: 1.556 (Simulation time: 04 hr 42 min 07 sec)
Heartbeat CPU 0 instructions: 480000000 cycles: 287854266 heartbeat IPC: 1.818 cumulative IPC: 1.562 (Simulation time: 04 hr 47 min 48 sec)
Heartbeat CPU 0 instructions: 490000001 cycles: 293327901 heartbeat IPC: 1.827 cumulative IPC: 1.567 (Simulation time: 04 hr 53 min 28 sec)
Heartbeat CPU 0 instructions: 500000002 cycles: 298566941 heartbeat IPC: 1.909 cumulative IPC: 1.573 (Simulation time: 04 hr 59 min 00 sec)
Heartbeat CPU 0 instructions: 510000000 cycles: 303632771 heartbeat IPC: 1.974 cumulative IPC: 1.58 (Simulation time: 05 hr 04 min 21 sec)
Heartbeat CPU 0 instructions: 520000000 cycles: 308708827 heartbeat IPC: 1.97 cumulative IPC: 1.587 (Simulation time: 05 hr 09 min 45 sec)
Heartbeat CPU 0 instructions: 530000001 cycles: 319600512 heartbeat IPC: 0.9181 cumulative IPC: 1.563 (Simulation time: 05 hr 19 min 00 sec)
Heartbeat CPU 0 instructions: 540000000 cycles: 331674294 heartbeat IPC: 0.8282 cumulative IPC: 1.535 (Simulation time: 05 hr 29 min 22 sec)
Heartbeat CPU 0 instructions: 550000002 cycles: 346255545 heartbeat IPC: 0.6858 cumulative IPC: 1.498 (Simulation time: 05 hr 40 min 58 sec)
Heartbeat CPU 0 instructions: 560000004 cycles: 351384770 heartbeat IPC: 1.95 cumulative IPC: 1.505 (Simulation time: 05 hr 46 min 25 sec)
Heartbeat CPU 0 instructions: 570000001 cycles: 355805025 heartbeat IPC: 2.262 cumulative IPC: 1.515 (Simulation time: 05 hr 51 min 24 sec)
Heartbeat CPU 0 instructions: 580000003 cycles: 360052020 heartbeat IPC: 2.355 cumulative IPC: 1.525 (Simulation time: 05 hr 56 min 14 sec)
Heartbeat CPU 0 instructions: 590000001 cycles: 364964357 heartbeat IPC: 2.036 cumulative IPC: 1.532 (Simulation time: 06 hr 01 min 33 sec)
Heartbeat CPU 0 instructions: 600000003 cycles: 369613068 heartbeat IPC: 2.151 cumulative IPC: 1.54 (Simulation time: 06 hr 06 min 40 sec)
Heartbeat CPU 0 instructions: 610000001 cycles: 374478741 heartbeat IPC: 2.055 cumulative IPC: 1.547 (Simulation time: 06 hr 11 min 53 sec)
Heartbeat CPU 0 instructions: 620000000 cycles: 379546306 heartbeat IPC: 1.973 cumulative IPC: 1.553 (Simulation time: 06 hr 17 min 22 sec)
Heartbeat CPU 0 instructions: 630000002 cycles: 383793091 heartbeat IPC: 2.355 cumulative IPC: 1.562 (Simulation time: 06 hr 22 min 20 sec)
Heartbeat CPU 0 instructions: 640000004 cycles: 389098466 heartbeat IPC: 1.885 cumulative IPC: 1.567 (Simulation time: 06 hr 27 min 55 sec)
Heartbeat CPU 0 instructions: 650000001 cycles: 393855977 heartbeat IPC: 2.102 cumulative IPC: 1.573 (Simulation time: 06 hr 33 min 02 sec)
Simulation finished CPU 0 instructions: 600000001 cycles: 381355916 cumulative IPC: 1.573 (Simulation time: 06 hr 33 min 02 sec)
Simulation complete CPU 0 instructions: 600000001 cycles: 381355916 cumulative IPC: 1.573 (Simulation time: 06 hr 33 min 02 sec)

ChampSim completed all CPUs

=== Simulation ===
CPU 0 runs traces/400.perlbench-50B.champsimtrace.xz
Region of Interest Statistics

CPU 0 cumulative IPC: 1.573 instructions: 600000001 cycles: 381355916
CPU 0 Branch Prediction Accuracy: 93.83% MPKI: 12.71 Average ROB Occupancy at Mispredict: 29.45
Branch type MPKI
BRANCH_DIRECT_JUMP: 0.0176
BRANCH_INDIRECT: 0.38
BRANCH_CONDITIONAL: 11.9
BRANCH_DIRECT_CALL: 0.0067
BRANCH_INDIRECT_CALL: 0.431
BRANCH_RETURN: 0.0161

LLC TOTAL        ACCESS:     879666 HIT:     259565 MISS:     620101
LLC LOAD         ACCESS:     376711 HIT:     111539 MISS:     265172
LLC RFO          ACCESS:      32675 HIT:      10550 MISS:      22125
LLC PREFETCH     ACCESS:     367904 HIT:      97145 MISS:     270759
LLC WRITE        ACCESS:      84227 HIT:      38640 MISS:      45587
LLC TRANSLATION  ACCESS:      18149 HIT:       1691 MISS:      16458
LLC PREFETCH REQUESTED:     367904 ISSUED:     367904 USEFUL:       2063 USELESS:        291
LLC AVERAGE MISS LATENCY: 280.2 cycles
cpu0_DTLB TOTAL        ACCESS:  156731412 HIT:  155429697 MISS:    1301715
cpu0_DTLB LOAD         ACCESS:  156731412 HIT:  155429697 MISS:    1301715
cpu0_DTLB RFO          ACCESS:          0 HIT:          0 MISS:          0
cpu0_DTLB PREFETCH     ACCESS:          0 HIT:          0 MISS:          0
cpu0_DTLB WRITE        ACCESS:          0 HIT:          0 MISS:          0
cpu0_DTLB TRANSLATION  ACCESS:          0 HIT:          0 MISS:          0
cpu0_DTLB PREFETCH REQUESTED:          0 ISSUED:          0 USEFUL:          0 USELESS:          0
cpu0_DTLB AVERAGE MISS LATENCY: 14.79 cycles
cpu0_ITLB TOTAL        ACCESS:    8933197 HIT:    8734355 MISS:     198842
cpu0_ITLB LOAD         ACCESS:    8933197 HIT:    8734355 MISS:     198842
cpu0_ITLB RFO          ACCESS:          0 HIT:          0 MISS:          0
cpu0_ITLB PREFETCH     ACCESS:          0 HIT:          0 MISS:          0
cpu0_ITLB WRITE        ACCESS:          0 HIT:          0 MISS:          0
cpu0_ITLB TRANSLATION  ACCESS:          0 HIT:          0 MISS:          0
cpu0_ITLB PREFETCH REQUESTED:          0 ISSUED:          0 USEFUL:          0 USELESS:          0
cpu0_ITLB AVERAGE MISS LATENCY: 3.637 cycles
cpu0_L1D TOTAL        ACCESS:  203600798 HIT:  200749509 MISS:    2851289
cpu0_L1D LOAD         ACCESS:  117924557 HIT:  115583372 MISS:    2341185
cpu0_L1D RFO          ACCESS:          0 HIT:          0 MISS:          0
cpu0_L1D PREFETCH     ACCESS:          0 HIT:          0 MISS:          0
cpu0_L1D WRITE        ACCESS:   85647700 HIT:   85164151 MISS:     483549
cpu0_L1D TRANSLATION  ACCESS:      28541 HIT:       1986 MISS:      26555
cpu0_L1D PREFETCH REQUESTED:          0 ISSUED:          0 USEFUL:          0 USELESS:          0
cpu0_L1D AVERAGE MISS LATENCY: 62.98 cycles
cpu0_L1I TOTAL        ACCESS:   10371898 HIT:    8572812 MISS:    1799086
cpu0_L1I LOAD         ACCESS:   10371898 HIT:    8572812 MISS:    1799086
cpu0_L1I RFO          ACCESS:          0 HIT:          0 MISS:          0
cpu0_L1I PREFETCH     ACCESS:          0 HIT:          0 MISS:          0
cpu0_L1I WRITE        ACCESS:          0 HIT:          0 MISS:          0
cpu0_L1I TRANSLATION  ACCESS:          0 HIT:          0 MISS:          0
cpu0_L1I PREFETCH REQUESTED:          0 ISSUED:          0 USEFUL:          0 USELESS:          0
cpu0_L1I AVERAGE MISS LATENCY: 12.93 cycles
cpu0_L2C TOTAL        ACCESS:    3235424 HIT:    2806952 MISS:     428472
cpu0_L2C LOAD         ACCESS:    2711757 HIT:    2335046 MISS:     376711
cpu0_L2C RFO          ACCESS:     133715 HIT:     101040 MISS:      32675
cpu0_L2C PREFETCH     ACCESS:          0 HIT:          0 MISS:          0
cpu0_L2C WRITE        ACCESS:     363482 HIT:     362545 MISS:        937
cpu0_L2C TRANSLATION  ACCESS:      26470 HIT:       8321 MISS:      18149
cpu0_L2C PREFETCH REQUESTED:          0 ISSUED:          0 USEFUL:          0 USELESS:          0
cpu0_L2C AVERAGE MISS LATENCY: 422.5 cycles
cpu0_STLB TOTAL        ACCESS:    1009297 HIT:     982606 MISS:      26691
cpu0_STLB LOAD         ACCESS:    1009297 HIT:     982606 MISS:      26691
cpu0_STLB RFO          ACCESS:          0 HIT:          0 MISS:          0
cpu0_STLB PREFETCH     ACCESS:          0 HIT:          0 MISS:          0
cpu0_STLB WRITE        ACCESS:          0 HIT:          0 MISS:          0
cpu0_STLB TRANSLATION  ACCESS:          0 HIT:          0 MISS:          0
cpu0_STLB PREFETCH REQUESTED:          0 ISSUED:          0 USEFUL:          0 USELESS:          0
cpu0_STLB AVERAGE MISS LATENCY: 509.1 cycles

DRAM Statistics

Channel 0 RQ ROW_BUFFER_HIT:      80003
  ROW_BUFFER_MISS:     344495
 AVG DBUS CONGESTED CYCLE: 3.852
WQ ROW_BUFFER_HIT: Channel 0 
  ROW_BUFFER_MISS:       7865
  FULL:      38796
