WARNING: physical memory size is smaller than virtual memory size.

*** ChampSim Multicore Out-of-Order Simulator ***
Warmup Instructions: 50000000
Simulation Instructions: 600000000
Number of CPUs: 1
Page size: 4096

Off-chip DRAM Size: 4 GiB Channels: 1 Width: 64-bit Data Race: 3200 MT/s
Heartbeat CPU 0 instructions: 10000000 cycles: 2500061 heartbeat IPC: 4 cumulative IPC: 4 (Simulation time: 00 hr 02 min 13 sec)
Heartbeat CPU 0 instructions: 20000000 cycles: 5000061 heartbeat IPC: 4 cumulative IPC: 4 (Simulation time: 00 hr 04 min 52 sec)
Heartbeat CPU 0 instructions: 30000000 cycles: 7500061 heartbeat IPC: 4 cumulative IPC: 4 (Simulation time: 00 hr 07 min 57 sec)
Heartbeat CPU 0 instructions: 40000000 cycles: 10000061 heartbeat IPC: 4 cumulative IPC: 4 (Simulation time: 00 hr 11 min 25 sec)
Heartbeat CPU 0 instructions: 50000000 cycles: 12500061 heartbeat IPC: 4 cumulative IPC: 4 (Simulation time: 00 hr 15 min 00 sec)
Warmup finished CPU 0 instructions: 50000000 cycles: 12500062 cumulative IPC: 4 (Simulation time: 00 hr 15 min 00 sec)
Warmup complete CPU 0 instructions: 50000000 cycles: 12500062 cumulative IPC: 4 (Simulation time: 00 hr 15 min 00 sec)
Heartbeat CPU 0 instructions: 60000002 cycles: 16445999 heartbeat IPC: 2.534 cumulative IPC: 2.534 (Simulation time: 00 hr 19 min 40 sec)
Heartbeat CPU 0 instructions: 70000003 cycles: 20769163 heartbeat IPC: 2.313 cumulative IPC: 2.419 (Simulation time: 00 hr 24 min 28 sec)
Heartbeat CPU 0 instructions: 80000003 cycles: 25245416 heartbeat IPC: 2.234 cumulative IPC: 2.354 (Simulation time: 00 hr 29 min 22 sec)
Heartbeat CPU 0 instructions: 90000000 cycles: 28937578 heartbeat IPC: 2.708 cumulative IPC: 2.433 (Simulation time: 00 hr 33 min 51 sec)
Heartbeat CPU 0 instructions: 100000003 cycles: 32840854 heartbeat IPC: 2.562 cumulative IPC: 2.458 (Simulation time: 00 hr 38 min 29 sec)
Heartbeat CPU 0 instructions: 110000002 cycles: 36946605 heartbeat IPC: 2.436 cumulative IPC: 2.454 (Simulation time: 00 hr 43 min 10 sec)
Heartbeat CPU 0 instructions: 120000001 cycles: 40665239 heartbeat IPC: 2.689 cumulative IPC: 2.485 (Simulation time: 00 hr 47 min 41 sec)
Heartbeat CPU 0 instructions: 130000003 cycles: 44441520 heartbeat IPC: 2.648 cumulative IPC: 2.505 (Simulation time: 00 hr 52 min 13 sec)
Heartbeat CPU 0 instructions: 140000002 cycles: 48576040 heartbeat IPC: 2.419 cumulative IPC: 2.495 (Simulation time: 00 hr 56 min 54 sec)
Heartbeat CPU 0 instructions: 150000001 cycles: 52629234 heartbeat IPC: 2.467 cumulative IPC: 2.492 (Simulation time: 01 hr 01 min 31 sec)
Heartbeat CPU 0 instructions: 160000000 cycles: 56288207 heartbeat IPC: 2.733 cumulative IPC: 2.512 (Simulation time: 01 hr 05 min 57 sec)
Heartbeat CPU 0 instructions: 170000001 cycles: 60468425 heartbeat IPC: 2.392 cumulative IPC: 2.502 (Simulation time: 01 hr 10 min 40 sec)
Heartbeat CPU 0 instructions: 180000001 cycles: 63933063 heartbeat IPC: 2.886 cumulative IPC: 2.528 (Simulation time: 01 hr 15 min 04 sec)
Heartbeat CPU 0 instructions: 190000002 cycles: 67523846 heartbeat IPC: 2.785 cumulative IPC: 2.544 (Simulation time: 01 hr 19 min 36 sec)
Heartbeat CPU 0 instructions: 200000002 cycles: 71308535 heartbeat IPC: 2.642 cumulative IPC: 2.551 (Simulation time: 01 hr 24 min 11 sec)
Heartbeat CPU 0 instructions: 210000000 cycles: 74950208 heartbeat IPC: 2.746 cumulative IPC: 2.562 (Simulation time: 01 hr 28 min 40 sec)
Heartbeat CPU 0 instructions: 220000001 cycles: 78823081 heartbeat IPC: 2.582 cumulative IPC: 2.563 (Simulation time: 01 hr 33 min 13 sec)
Heartbeat CPU 0 instructions: 230000002 cycles: 82667367 heartbeat IPC: 2.601 cumulative IPC: 2.565 (Simulation time: 01 hr 37 min 48 sec)
Heartbeat CPU 0 instructions: 240000001 cycles: 86878343 heartbeat IPC: 2.375 cumulative IPC: 2.555 (Simulation time: 01 hr 42 min 34 sec)
Heartbeat CPU 0 instructions: 250000003 cycles: 91451469 heartbeat IPC: 2.187 cumulative IPC: 2.533 (Simulation time: 01 hr 47 min 27 sec)
Heartbeat CPU 0 instructions: 260000000 cycles: 95248982 heartbeat IPC: 2.633 cumulative IPC: 2.538 (Simulation time: 01 hr 52 min 04 sec)
Heartbeat CPU 0 instructions: 270000003 cycles: 102394992 heartbeat IPC: 1.399 cumulative IPC: 2.447 (Simulation time: 01 hr 58 min 44 sec)
Heartbeat CPU 0 instructions: 280000000 cycles: 113904924 heartbeat IPC: 0.8688 cumulative IPC: 2.268 (Simulation time: 02 hr 08 min 16 sec)
Heartbeat CPU 0 instructions: 290000000 cycles: 124115111 heartbeat IPC: 0.9794 cumulative IPC: 2.15 (Simulation time: 02 hr 17 min 07 sec)
Heartbeat CPU 0 instructions: 300000003 cycles: 131391407 heartbeat IPC: 1.374 cumulative IPC: 2.103 (Simulation time: 02 hr 24 min 17 sec)
Heartbeat CPU 0 instructions: 310000004 cycles: 142000092 heartbeat IPC: 0.9426 cumulative IPC: 2.008 (Simulation time: 02 hr 33 min 32 sec)
Heartbeat CPU 0 instructions: 320000004 cycles: 146957071 heartbeat IPC: 2.017 cumulative IPC: 2.008 (Simulation time: 02 hr 39 min 09 sec)
Heartbeat CPU 0 instructions: 330000000 cycles: 151038508 heartbeat IPC: 2.45 cumulative IPC: 2.021 (Simulation time: 02 hr 44 min 04 sec)
Heartbeat CPU 0 instructions: 340000001 cycles: 155380762 heartbeat IPC: 2.303 cumulative IPC: 2.03 (Simulation time: 02 hr 49 min 00 sec)
Heartbeat CPU 0 instructions: 350000004 cycles: 159851717 heartbeat IPC: 2.237 cumulative IPC: 2.036 (Simulation time: 02 hr 54 min 04 sec)
Heartbeat CPU 0 instructions: 360000003 cycles: 164025434 heartbeat IPC: 2.396 cumulative IPC: 2.046 (Simulation time: 02 hr 58 min 56 sec)
Heartbeat CPU 0 instructions: 370000001 cycles: 168092576 heartbeat IPC: 2.459 cumulative IPC: 2.057 (Simulation time: 03 hr 03 min 46 sec)
Heartbeat CPU 0 instructions: 380000004 cycles: 172024064 heartbeat IPC: 2.544 cumulative IPC: 2.069 (Simulation time: 03 hr 08 min 31 sec)
Heartbeat CPU 0 instructions: 390000002 cycles: 176158756 heartbeat IPC: 2.419 cumulative IPC: 2.077 (Simulation time: 03 hr 13 min 27 sec)
Heartbeat CPU 0 instructions: 400000000 cycles: 180558119 heartbeat IPC: 2.273 cumulative IPC: 2.083 (Simulation time: 03 hr 18 min 28 sec)
Heartbeat CPU 0 instructions: 410000000 cycles: 188472612 heartbeat IPC: 1.264 cumulative IPC: 2.046 (Simulation time: 03 hr 25 min 43 sec)
Heartbeat CPU 0 instructions: 420000003 cycles: 200123003 heartbeat IPC: 0.8583 cumulative IPC: 1.972 (Simulation time: 03 hr 35 min 21 sec)
Heartbeat CPU 0 instructions: 430000000 cycles: 207821000 heartbeat IPC: 1.299 cumulative IPC: 1.946 (Simulation time: 03 hr 42 min 48 sec)
Heartbeat CPU 0 instructions: 440000004 cycles: 215095051 heartbeat IPC: 1.375 cumulative IPC: 1.925 (Simulation time: 03 hr 49 min 57 sec)
Heartbeat CPU 0 instructions: 450000000 cycles: 221974016 heartbeat IPC: 1.454 cumulative IPC: 1.91 (Simulation time: 03 hr 56 min 53 sec)
Heartbeat CPU 0 instructions: 460000002 cycles: 233024296 heartbeat IPC: 0.905 cumulative IPC: 1.859 (Simulation time: 04 hr 06 min 21 sec)
Heartbeat CPU 0 instructions: 470000003 cycles: 242315613 heartbeat IPC: 1.076 cumulative IPC: 1.828 (Simulation time: 04 hr 14 min 42 sec)
Heartbeat CPU 0 instructions: 480000003 cycles: 246622736 heartbeat IPC: 2.322 cumulative IPC: 1.837 (Simulation time: 04 hr 19 min 42 sec)
Heartbeat CPU 0 instructions: 490000001 cycles: 251397113 heartbeat IPC: 2.095 cumulative IPC: 1.842 (Simulation time: 04 hr 24 min 57 sec)
Heartbeat CPU 0 instructions: 500000002 cycles: 255931891 heartbeat IPC: 2.205 cumulative IPC: 1.849 (Simulation time: 04 hr 30 min 04 sec)
Heartbeat CPU 0 instructions: 510000000 cycles: 260246195 heartbeat IPC: 2.318 cumulative IPC: 1.857 (Simulation time: 04 hr 35 min 08 sec)
Heartbeat CPU 0 instructions: 520000000 cycles: 264746861 heartbeat IPC: 2.222 cumulative IPC: 1.863 (Simulation time: 04 hr 40 min 17 sec)
Heartbeat CPU 0 instructions: 530000001 cycles: 276714288 heartbeat IPC: 0.8356 cumulative IPC: 1.817 (Simulation time: 04 hr 50 min 11 sec)
Heartbeat CPU 0 instructions: 540000000 cycles: 288290999 heartbeat IPC: 0.8638 cumulative IPC: 1.777 (Simulation time: 04 hr 59 min 54 sec)
Heartbeat CPU 0 instructions: 550000004 cycles: 301038523 heartbeat IPC: 0.7845 cumulative IPC: 1.733 (Simulation time: 05 hr 10 min 24 sec)
Heartbeat CPU 0 instructions: 560000004 cycles: 305237187 heartbeat IPC: 2.382 cumulative IPC: 1.742 (Simulation time: 05 hr 15 min 17 sec)
Heartbeat CPU 0 instructions: 570000001 cycles: 308368958 heartbeat IPC: 3.193 cumulative IPC: 1.758 (Simulation time: 05 hr 19 min 38 sec)
Heartbeat CPU 0 instructions: 580000003 cycles: 311917708 heartbeat IPC: 2.818 cumulative IPC: 1.77 (Simulation time: 05 hr 24 min 06 sec)
Heartbeat CPU 0 instructions: 590000002 cycles: 315544554 heartbeat IPC: 2.757 cumulative IPC: 1.782 (Simulation time: 05 hr 28 min 40 sec)
Heartbeat CPU 0 instructions: 600000003 cycles: 318611355 heartbeat IPC: 3.261 cumulative IPC: 1.797 (Simulation time: 05 hr 33 min 01 sec)
Heartbeat CPU 0 instructions: 610000001 cycles: 322121544 heartbeat IPC: 2.849 cumulative IPC: 1.809 (Simulation time: 05 hr 37 min 50 sec)
Heartbeat CPU 0 instructions: 620000000 cycles: 326138623 heartbeat IPC: 2.489 cumulative IPC: 1.817 (Simulation time: 05 hr 43 min 03 sec)
Heartbeat CPU 0 instructions: 630000002 cycles: 329506339 heartbeat IPC: 2.969 cumulative IPC: 1.83 (Simulation time: 05 hr 47 min 38 sec)
Heartbeat CPU 0 instructions: 640000004 cycles: 333522187 heartbeat IPC: 2.49 cumulative IPC: 1.838 (Simulation time: 05 hr 52 min 29 sec)
Heartbeat CPU 0 instructions: 650000001 cycles: 337347155 heartbeat IPC: 2.614 cumulative IPC: 1.847 (Simulation time: 05 hr 57 min 23 sec)
Simulation finished CPU 0 instructions: 600000001 cycles: 324847094 cumulative IPC: 1.847 (Simulation time: 05 hr 57 min 23 sec)
Simulation complete CPU 0 instructions: 600000001 cycles: 324847094 cumulative IPC: 1.847 (Simulation time: 05 hr 57 min 23 sec)

ChampSim completed all CPUs

=== Simulation ===
CPU 0 runs traces/400.perlbench-50B.champsimtrace.xz
Region of Interest Statistics

CPU 0 cumulative IPC: 1.847 instructions: 600000001 cycles: 324847094
CPU 0 Branch Prediction Accuracy: 96.2% MPKI: 7.839 Average ROB Occupancy at Mispredict: 43.46
Branch type MPKI
BRANCH_DIRECT_JUMP: 0.0176
BRANCH_INDIRECT: 0.38
BRANCH_CONDITIONAL: 6.99
BRANCH_DIRECT_CALL: 0.0067
BRANCH_INDIRECT_CALL: 0.431
BRANCH_RETURN: 0.0161

LLC TOTAL        ACCESS:     511199 HIT:     190378 MISS:     320821
LLC LOAD         ACCESS:     376278 HIT:      97847 MISS:     278431
LLC RFO          ACCESS:      32872 HIT:      13002 MISS:      19870
LLC PREFETCH     ACCESS:          0 HIT:          0 MISS:          0
LLC WRITE        ACCESS:      83949 HIT:      73757 MISS:      10192
LLC TRANSLATION  ACCESS:      18100 HIT:       5772 MISS:      12328
LLC PREFETCH REQUESTED:          0 ISSUED:          0 USEFUL:          0 USELESS:          0
LLC AVERAGE MISS LATENCY: 527.9 cycles
cpu0_DTLB TOTAL        ACCESS:  146469075 HIT:  145166401 MISS:    1302674
cpu0_DTLB LOAD         ACCESS:  146469075 HIT:  145166401 MISS:    1302674
cpu0_DTLB RFO          ACCESS:          0 HIT:          0 MISS:          0
cpu0_DTLB PREFETCH     ACCESS:          0 HIT:          0 MISS:          0
cpu0_DTLB WRITE        ACCESS:          0 HIT:          0 MISS:          0
cpu0_DTLB TRANSLATION  ACCESS:          0 HIT:          0 MISS:          0
cpu0_DTLB PREFETCH REQUESTED:          0 ISSUED:          0 USEFUL:          0 USELESS:          0
cpu0_DTLB AVERAGE MISS LATENCY: 12.02 cycles
cpu0_ITLB TOTAL        ACCESS:    8990635 HIT:    8805898 MISS:     184737
cpu0_ITLB LOAD         ACCESS:    8990635 HIT:    8805898 MISS:     184737
cpu0_ITLB RFO          ACCESS:          0 HIT:          0 MISS:          0
cpu0_ITLB PREFETCH     ACCESS:          0 HIT:          0 MISS:          0
cpu0_ITLB WRITE        ACCESS:          0 HIT:          0 MISS:          0
cpu0_ITLB TRANSLATION  ACCESS:          0 HIT:          0 MISS:          0
cpu0_ITLB PREFETCH REQUESTED:          0 ISSUED:          0 USEFUL:          0 USELESS:          0
cpu0_ITLB AVERAGE MISS LATENCY: 3.625 cycles
cpu0_L1D TOTAL        ACCESS:  193280850 HIT:  190432331 MISS:    2848519
cpu0_L1D LOAD         ACCESS:  107433776 HIT:  105088176 MISS:    2345600
cpu0_L1D RFO          ACCESS:          0 HIT:          0 MISS:          0
cpu0_L1D PREFETCH     ACCESS:          0 HIT:          0 MISS:          0
cpu0_L1D WRITE        ACCESS:   85818540 HIT:   85342137 MISS:     476403
cpu0_L1D TRANSLATION  ACCESS:      28534 HIT:       2018 MISS:      26516
cpu0_L1D PREFETCH REQUESTED:          0 ISSUED:          0 USEFUL:          0 USELESS:          0
cpu0_L1D AVERAGE MISS LATENCY: 63.03 cycles
cpu0_L1I TOTAL        ACCESS:   10424555 HIT:    8661024 MISS:    1763531
cpu0_L1I LOAD         ACCESS:   10424555 HIT:    8661024 MISS:    1763531
cpu0_L1I RFO          ACCESS:          0 HIT:          0 MISS:          0
cpu0_L1I PREFETCH     ACCESS:          0 HIT:          0 MISS:          0
cpu0_L1I WRITE        ACCESS:          0 HIT:          0 MISS:          0
cpu0_L1I TRANSLATION  ACCESS:          0 HIT:          0 MISS:          0
cpu0_L1I PREFETCH REQUESTED:          0 ISSUED:          0 USEFUL:          0 USELESS:          0
cpu0_L1I AVERAGE MISS LATENCY: 11.14 cycles
cpu0_L2C TOTAL        ACCESS:    3232435 HIT:    2804271 MISS:     428164
cpu0_L2C LOAD         ACCESS:    2710138 HIT:    2333860 MISS:     376278
cpu0_L2C RFO          ACCESS:     133259 HIT:     100387 MISS:      32872
cpu0_L2C PREFETCH     ACCESS:          0 HIT:          0 MISS:          0
cpu0_L2C WRITE        ACCESS:     362588 HIT:     361674 MISS:        914
cpu0_L2C TRANSLATION  ACCESS:      26450 HIT:       8350 MISS:      18100
cpu0_L2C PREFETCH REQUESTED:          0 ISSUED:          0 USEFUL:          0 USELESS:          0
cpu0_L2C AVERAGE MISS LATENCY: 416.3 cycles
cpu0_STLB TOTAL        ACCESS:    1008317 HIT:     981620 MISS:      26697
cpu0_STLB LOAD         ACCESS:    1008317 HIT:     981620 MISS:      26697
cpu0_STLB RFO          ACCESS:          0 HIT:          0 MISS:          0
cpu0_STLB PREFETCH     ACCESS:          0 HIT:          0 MISS:          0
cpu0_STLB WRITE        ACCESS:          0 HIT:          0 MISS:          0
cpu0_STLB TRANSLATION  ACCESS:          0 HIT:          0 MISS:          0
cpu0_STLB PREFETCH REQUESTED:          0 ISSUED:          0 USEFUL:          0 USELESS:          0
cpu0_STLB AVERAGE MISS LATENCY: 369 cycles

DRAM Statistics

Channel 0 RQ ROW_BUFFER_HIT:      57326
  ROW_BUFFER_MISS:     253285
 AVG DBUS CONGESTED CYCLE: 3.798
WQ ROW_BUFFER_HIT: Channel 0 
  ROW_BUFFER_MISS:       8751
  FULL:      35923
