WARNING: physical memory size is smaller than virtual memory size.

*** ChampSim Multicore Out-of-Order Simulator ***
Warmup Instructions: 50000000
Simulation Instructions: 600000000
Number of CPUs: 1
Page size: 4096

Initialize SIGNATURE TABLE
ST_SET: 1
ST_WAY: 256
ST_TAG_BIT: 16
ST_TAG_MASK: ffff

Initialize PATTERN TABLE
PT_SET: 512
PT_WAY: 4
SIG_DELTA_BIT: 7
C_SIG_BIT: 4
C_DELTA_BIT: 4

Initialize PREFETCH FILTER
FILTER_SET: 1024
Off-chip DRAM Size: 4 GiB Channels: 1 Width: 64-bit Data Race: 3200 MT/s
Heartbeat CPU 0 instructions: 10000001 cycles: 2500318 heartbeat IPC: 3.999 cumulative IPC: 3.999 (Simulation time: 00 hr 04 min 08 sec)
Heartbeat CPU 0 instructions: 20000002 cycles: 5037070 heartbeat IPC: 3.942 cumulative IPC: 3.971 (Simulation time: 00 hr 08 min 06 sec)
Heartbeat CPU 0 instructions: 30000002 cycles: 7537070 heartbeat IPC: 4 cumulative IPC: 3.98 (Simulation time: 00 hr 11 min 44 sec)
Heartbeat CPU 0 instructions: 40000002 cycles: 10037070 heartbeat IPC: 4 cumulative IPC: 3.985 (Simulation time: 00 hr 15 min 23 sec)
Heartbeat CPU 0 instructions: 50000002 cycles: 12537070 heartbeat IPC: 4 cumulative IPC: 3.988 (Simulation time: 00 hr 19 min 00 sec)
Warmup finished CPU 0 instructions: 50000002 cycles: 12537071 cumulative IPC: 3.988 (Simulation time: 00 hr 19 min 00 sec)
Warmup complete CPU 0 instructions: 50000002 cycles: 12537071 cumulative IPC: 3.988 (Simulation time: 00 hr 19 min 00 sec)
Heartbeat CPU 0 instructions: 60000001 cycles: 15753041 heartbeat IPC: 3.109 cumulative IPC: 3.109 (Simulation time: 00 hr 23 min 29 sec)
Heartbeat CPU 0 instructions: 70000004 cycles: 18978113 heartbeat IPC: 3.101 cumulative IPC: 3.105 (Simulation time: 00 hr 28 min 16 sec)
Heartbeat CPU 0 instructions: 80000001 cycles: 22203466 heartbeat IPC: 3.1 cumulative IPC: 3.104 (Simulation time: 00 hr 32 min 56 sec)
Heartbeat CPU 0 instructions: 90000001 cycles: 25277732 heartbeat IPC: 3.253 cumulative IPC: 3.14 (Simulation time: 00 hr 37 min 28 sec)
Heartbeat CPU 0 instructions: 100000000 cycles: 28348960 heartbeat IPC: 3.256 cumulative IPC: 3.162 (Simulation time: 00 hr 41 min 56 sec)
Heartbeat CPU 0 instructions: 110000000 cycles: 31430953 heartbeat IPC: 3.245 cumulative IPC: 3.176 (Simulation time: 00 hr 46 min 21 sec)
Heartbeat CPU 0 instructions: 120000001 cycles: 34543549 heartbeat IPC: 3.213 cumulative IPC: 3.181 (Simulation time: 00 hr 50 min 49 sec)
Heartbeat CPU 0 instructions: 130000001 cycles: 37507089 heartbeat IPC: 3.374 cumulative IPC: 3.204 (Simulation time: 00 hr 55 min 19 sec)
Heartbeat CPU 0 instructions: 140000001 cycles: 40699008 heartbeat IPC: 3.133 cumulative IPC: 3.196 (Simulation time: 00 hr 59 min 53 sec)
Heartbeat CPU 0 instructions: 150000001 cycles: 43887090 heartbeat IPC: 3.137 cumulative IPC: 3.19 (Simulation time: 01 hr 04 min 23 sec)
Heartbeat CPU 0 instructions: 160000004 cycles: 47106770 heartbeat IPC: 3.106 cumulative IPC: 3.182 (Simulation time: 01 hr 08 min 53 sec)
Heartbeat CPU 0 instructions: 170000004 cycles: 54216898 heartbeat IPC: 1.406 cumulative IPC: 2.879 (Simulation time: 01 hr 16 min 15 sec)
Heartbeat CPU 0 instructions: 180000004 cycles: 61573614 heartbeat IPC: 1.359 cumulative IPC: 2.651 (Simulation time: 01 hr 23 min 54 sec)
Heartbeat CPU 0 instructions: 190000001 cycles: 69502705 heartbeat IPC: 1.261 cumulative IPC: 2.458 (Simulation time: 01 hr 32 min 08 sec)
Heartbeat CPU 0 instructions: 200000004 cycles: 72566332 heartbeat IPC: 3.264 cumulative IPC: 2.499 (Simulation time: 01 hr 36 min 37 sec)
Heartbeat CPU 0 instructions: 210000001 cycles: 75636313 heartbeat IPC: 3.257 cumulative IPC: 2.536 (Simulation time: 01 hr 41 min 06 sec)
Heartbeat CPU 0 instructions: 220000000 cycles: 78633696 heartbeat IPC: 3.336 cumulative IPC: 2.572 (Simulation time: 01 hr 45 min 29 sec)
Heartbeat CPU 0 instructions: 230000004 cycles: 81903884 heartbeat IPC: 3.058 cumulative IPC: 2.595 (Simulation time: 01 hr 50 min 02 sec)
Heartbeat CPU 0 instructions: 240000002 cycles: 85077733 heartbeat IPC: 3.151 cumulative IPC: 2.619 (Simulation time: 01 hr 54 min 36 sec)
Heartbeat CPU 0 instructions: 250000000 cycles: 88255241 heartbeat IPC: 3.147 cumulative IPC: 2.641 (Simulation time: 01 hr 59 min 09 sec)
Heartbeat CPU 0 instructions: 260000002 cycles: 91379344 heartbeat IPC: 3.201 cumulative IPC: 2.664 (Simulation time: 02 hr 03 min 38 sec)
Heartbeat CPU 0 instructions: 270000002 cycles: 94424128 heartbeat IPC: 3.284 cumulative IPC: 2.687 (Simulation time: 02 hr 08 min 12 sec)
Heartbeat CPU 0 instructions: 280000002 cycles: 97456344 heartbeat IPC: 3.298 cumulative IPC: 2.708 (Simulation time: 02 hr 12 min 37 sec)
Heartbeat CPU 0 instructions: 290000002 cycles: 100544350 heartbeat IPC: 3.238 cumulative IPC: 2.727 (Simulation time: 02 hr 17 min 06 sec)
Heartbeat CPU 0 instructions: 300000003 cycles: 103564408 heartbeat IPC: 3.311 cumulative IPC: 2.746 (Simulation time: 02 hr 21 min 40 sec)
Heartbeat CPU 0 instructions: 310000001 cycles: 106740379 heartbeat IPC: 3.149 cumulative IPC: 2.76 (Simulation time: 02 hr 26 min 13 sec)
Heartbeat CPU 0 instructions: 320000003 cycles: 109921367 heartbeat IPC: 3.144 cumulative IPC: 2.773 (Simulation time: 02 hr 30 min 49 sec)
Heartbeat CPU 0 instructions: 330000003 cycles: 113124906 heartbeat IPC: 3.122 cumulative IPC: 2.784 (Simulation time: 02 hr 35 min 22 sec)
Heartbeat CPU 0 instructions: 340000000 cycles: 120348922 heartbeat IPC: 1.384 cumulative IPC: 2.69 (Simulation time: 02 hr 42 min 47 sec)
Heartbeat CPU 0 instructions: 350000000 cycles: 127987129 heartbeat IPC: 1.309 cumulative IPC: 2.599 (Simulation time: 02 hr 50 min 40 sec)
Heartbeat CPU 0 instructions: 360000004 cycles: 136001050 heartbeat IPC: 1.248 cumulative IPC: 2.511 (Simulation time: 02 hr 58 min 42 sec)
Heartbeat CPU 0 instructions: 370000000 cycles: 139003331 heartbeat IPC: 3.331 cumulative IPC: 2.53 (Simulation time: 03 hr 03 min 15 sec)
Heartbeat CPU 0 instructions: 380000001 cycles: 141992723 heartbeat IPC: 3.345 cumulative IPC: 2.549 (Simulation time: 03 hr 07 min 43 sec)
Heartbeat CPU 0 instructions: 390000002 cycles: 145046840 heartbeat IPC: 3.274 cumulative IPC: 2.566 (Simulation time: 03 hr 12 min 08 sec)
Heartbeat CPU 0 instructions: 400000004 cycles: 148017105 heartbeat IPC: 3.367 cumulative IPC: 2.583 (Simulation time: 03 hr 16 min 36 sec)
Heartbeat CPU 0 instructions: 410000001 cycles: 151115284 heartbeat IPC: 3.228 cumulative IPC: 2.598 (Simulation time: 03 hr 21 min 06 sec)
Heartbeat CPU 0 instructions: 420000002 cycles: 154443067 heartbeat IPC: 3.005 cumulative IPC: 2.607 (Simulation time: 03 hr 25 min 42 sec)
Heartbeat CPU 0 instructions: 430000001 cycles: 157537215 heartbeat IPC: 3.232 cumulative IPC: 2.621 (Simulation time: 03 hr 30 min 14 sec)
Heartbeat CPU 0 instructions: 440000004 cycles: 160836245 heartbeat IPC: 3.031 cumulative IPC: 2.63 (Simulation time: 03 hr 34 min 54 sec)
Heartbeat CPU 0 instructions: 450000002 cycles: 163874045 heartbeat IPC: 3.292 cumulative IPC: 2.643 (Simulation time: 03 hr 39 min 21 sec)
Heartbeat CPU 0 instructions: 460000000 cycles: 166941117 heartbeat IPC: 3.26 cumulative IPC: 2.655 (Simulation time: 03 hr 43 min 49 sec)
Heartbeat CPU 0 instructions: 470000001 cycles: 169889667 heartbeat IPC: 3.391 cumulative IPC: 2.669 (Simulation time: 03 hr 48 min 13 sec)
Heartbeat CPU 0 instructions: 480000003 cycles: 173099478 heartbeat IPC: 3.115 cumulative IPC: 2.678 (Simulation time: 03 hr 52 min 44 sec)
Heartbeat CPU 0 instructions: 490000004 cycles: 176022489 heartbeat IPC: 3.421 cumulative IPC: 2.691 (Simulation time: 03 hr 57 min 23 sec)
Heartbeat CPU 0 instructions: 500000004 cycles: 179100757 heartbeat IPC: 3.249 cumulative IPC: 2.702 (Simulation time: 04 hr 01 min 48 sec)
Heartbeat CPU 0 instructions: 510000003 cycles: 182252296 heartbeat IPC: 3.173 cumulative IPC: 2.71 (Simulation time: 04 hr 06 min 27 sec)
Heartbeat CPU 0 instructions: 520000001 cycles: 185272333 heartbeat IPC: 3.311 cumulative IPC: 2.721 (Simulation time: 04 hr 10 min 57 sec)
Heartbeat CPU 0 instructions: 530000001 cycles: 188385382 heartbeat IPC: 3.212 cumulative IPC: 2.73 (Simulation time: 04 hr 15 min 27 sec)
Heartbeat CPU 0 instructions: 540000001 cycles: 191465525 heartbeat IPC: 3.247 cumulative IPC: 2.739 (Simulation time: 04 hr 19 min 54 sec)
Heartbeat CPU 0 instructions: 550000001 cycles: 194592876 heartbeat IPC: 3.198 cumulative IPC: 2.746 (Simulation time: 04 hr 24 min 36 sec)
Heartbeat CPU 0 instructions: 560000004 cycles: 197894158 heartbeat IPC: 3.029 cumulative IPC: 2.751 (Simulation time: 04 hr 29 min 08 sec)
Heartbeat CPU 0 instructions: 570000004 cycles: 203265599 heartbeat IPC: 1.862 cumulative IPC: 2.726 (Simulation time: 04 hr 35 min 12 sec)
Heartbeat CPU 0 instructions: 580000003 cycles: 210777423 heartbeat IPC: 1.331 cumulative IPC: 2.674 (Simulation time: 04 hr 42 min 57 sec)
Heartbeat CPU 0 instructions: 590000002 cycles: 220645134 heartbeat IPC: 1.013 cumulative IPC: 2.595 (Simulation time: 04 hr 52 min 17 sec)
Heartbeat CPU 0 instructions: 600000000 cycles: 223748644 heartbeat IPC: 3.222 cumulative IPC: 2.604 (Simulation time: 04 hr 56 min 42 sec)
Heartbeat CPU 0 instructions: 610000002 cycles: 226781325 heartbeat IPC: 3.297 cumulative IPC: 2.614 (Simulation time: 05 hr 01 min 05 sec)
Heartbeat CPU 0 instructions: 620000001 cycles: 229629444 heartbeat IPC: 3.511 cumulative IPC: 2.626 (Simulation time: 05 hr 05 min 28 sec)
Heartbeat CPU 0 instructions: 630000002 cycles: 232742170 heartbeat IPC: 3.213 cumulative IPC: 2.634 (Simulation time: 05 hr 09 min 57 sec)
Heartbeat CPU 0 instructions: 640000004 cycles: 235754168 heartbeat IPC: 3.32 cumulative IPC: 2.643 (Simulation time: 05 hr 14 min 23 sec)
Heartbeat CPU 0 instructions: 650000000 cycles: 238590394 heartbeat IPC: 3.526 cumulative IPC: 2.654 (Simulation time: 05 hr 18 min 41 sec)
Simulation finished CPU 0 instructions: 600000001 cycles: 226053325 cumulative IPC: 2.654 (Simulation time: 05 hr 18 min 41 sec)
Simulation complete CPU 0 instructions: 600000001 cycles: 226053325 cumulative IPC: 2.654 (Simulation time: 05 hr 18 min 41 sec)

ChampSim completed all CPUs

=== Simulation ===
CPU 0 runs traces/400.perlbench-41B.champsimtrace.xz
Region of Interest Statistics

CPU 0 cumulative IPC: 2.654 instructions: 600000001 cycles: 226053325
CPU 0 Branch Prediction Accuracy: 98.9% MPKI: 2.275 Average ROB Occupancy at Mispredict: 91.24
Branch type MPKI
BRANCH_DIRECT_JUMP: 0.0123
BRANCH_INDIRECT: 0.323
BRANCH_CONDITIONAL: 1.73
BRANCH_DIRECT_CALL: 0.0043
BRANCH_INDIRECT_CALL: 0.2
BRANCH_RETURN: 0.00828

LLC TOTAL        ACCESS:     720047 HIT:     301189 MISS:     418858
LLC LOAD         ACCESS:     309514 HIT:     138810 MISS:     170704
LLC RFO          ACCESS:      25096 HIT:       8022 MISS:      17074
LLC PREFETCH     ACCESS:     305764 HIT:     118034 MISS:     187730
LLC WRITE        ACCESS:      63999 HIT:      34467 MISS:      29532
LLC TRANSLATION  ACCESS:      15674 HIT:       1856 MISS:      13818
LLC PREFETCH REQUESTED:     305764 ISSUED:     305764 USEFUL:       1951 USELESS:        289
LLC AVERAGE MISS LATENCY: 333.9 cycles
cpu0_DTLB TOTAL        ACCESS:  131043707 HIT:  130341619 MISS:     702088
cpu0_DTLB LOAD         ACCESS:  131043707 HIT:  130341619 MISS:     702088
cpu0_DTLB RFO          ACCESS:          0 HIT:          0 MISS:          0
cpu0_DTLB PREFETCH     ACCESS:          0 HIT:          0 MISS:          0
cpu0_DTLB WRITE        ACCESS:          0 HIT:          0 MISS:          0
cpu0_DTLB TRANSLATION  ACCESS:          0 HIT:          0 MISS:          0
cpu0_DTLB PREFETCH REQUESTED:          0 ISSUED:          0 USEFUL:          0 USELESS:          0
cpu0_DTLB AVERAGE MISS LATENCY: 19.53 cycles
cpu0_ITLB TOTAL        ACCESS:    4864940 HIT:    4803650 MISS:      61290
cpu0_ITLB LOAD         ACCESS:    4864940 HIT:    4803650 MISS:      61290
cpu0_ITLB RFO          ACCESS:          0 HIT:          0 MISS:          0
cpu0_ITLB PREFETCH     ACCESS:          0 HIT:          0 MISS:          0
cpu0_ITLB WRITE        ACCESS:          0 HIT:          0 MISS:          0
cpu0_ITLB TRANSLATION  ACCESS:          0 HIT:          0 MISS:          0
cpu0_ITLB PREFETCH REQUESTED:          0 ISSUED:          0 USEFUL:          0 USELESS:          0
cpu0_ITLB AVERAGE MISS LATENCY: 7.093 cycles
cpu0_L1D TOTAL        ACCESS:  176701151 HIT:  175320890 MISS:    1380261
cpu0_L1D LOAD         ACCESS:   93625809 HIT:   92565430 MISS:    1060379
cpu0_L1D RFO          ACCESS:          0 HIT:          0 MISS:          0
cpu0_L1D PREFETCH     ACCESS:          0 HIT:          0 MISS:          0
cpu0_L1D WRITE        ACCESS:   83050875 HIT:   82753861 MISS:     297014
cpu0_L1D TRANSLATION  ACCESS:      24467 HIT:       1599 MISS:      22868
cpu0_L1D PREFETCH REQUESTED:          0 ISSUED:          0 USEFUL:          0 USELESS:          0
cpu0_L1D AVERAGE MISS LATENCY: 101.1 cycles
cpu0_L1I TOTAL        ACCESS:    5642049 HIT:    4841105 MISS:     800944
cpu0_L1I LOAD         ACCESS:    5642049 HIT:    4841105 MISS:     800944
cpu0_L1I RFO          ACCESS:          0 HIT:          0 MISS:          0
cpu0_L1I PREFETCH     ACCESS:          0 HIT:          0 MISS:          0
cpu0_L1I WRITE        ACCESS:          0 HIT:          0 MISS:          0
cpu0_L1I TRANSLATION  ACCESS:          0 HIT:          0 MISS:          0
cpu0_L1I PREFETCH REQUESTED:          0 ISSUED:          0 USEFUL:          0 USELESS:          0
cpu0_L1I AVERAGE MISS LATENCY: 8.764 cycles
cpu0_L2C TOTAL        ACCESS:    1381604 HIT:    1030449 MISS:     351155
cpu0_L2C LOAD         ACCESS:    1124066 HIT:     814552 MISS:     309514
cpu0_L2C RFO          ACCESS:      64524 HIT:      39428 MISS:      25096
cpu0_L2C PREFETCH     ACCESS:          0 HIT:          0 MISS:          0
cpu0_L2C WRITE        ACCESS:     170234 HIT:     169363 MISS:        871
cpu0_L2C TRANSLATION  ACCESS:      22780 HIT:       7106 MISS:      15674
cpu0_L2C PREFETCH REQUESTED:          0 ISSUED:          0 USEFUL:          0 USELESS:          0
cpu0_L2C AVERAGE MISS LATENCY: 414.8 cycles
cpu0_STLB TOTAL        ACCESS:     508518 HIT:     485731 MISS:      22787
cpu0_STLB LOAD         ACCESS:     508518 HIT:     485731 MISS:      22787
cpu0_STLB RFO          ACCESS:          0 HIT:          0 MISS:          0
cpu0_STLB PREFETCH     ACCESS:          0 HIT:          0 MISS:          0
cpu0_STLB WRITE        ACCESS:          0 HIT:          0 MISS:          0
cpu0_STLB TRANSLATION  ACCESS:          0 HIT:          0 MISS:          0
cpu0_STLB PREFETCH REQUESTED:          0 ISSUED:          0 USEFUL:          0 USELESS:          0
cpu0_STLB AVERAGE MISS LATENCY: 507.3 cycles

DRAM Statistics

Channel 0 RQ ROW_BUFFER_HIT:      56150
  ROW_BUFFER_MISS:     238360
 AVG DBUS CONGESTED CYCLE: 3.885
WQ ROW_BUFFER_HIT: Channel 0 
  ROW_BUFFER_MISS:       5462
  FULL:      27282
