WARNING: physical memory size is smaller than virtual memory size.

*** ChampSim Multicore Out-of-Order Simulator ***
Warmup Instructions: 50000000
Simulation Instructions: 600000000
Number of CPUs: 1
Page size: 4096

Off-chip DRAM Size: 4 GiB Channels: 1 Width: 64-bit Data Race: 3200 MT/s
Heartbeat CPU 0 instructions: 10000000 cycles: 2500061 heartbeat IPC: 4 cumulative IPC: 4 (Simulation time: 00 hr 03 min 31 sec)
Heartbeat CPU 0 instructions: 20000000 cycles: 5000061 heartbeat IPC: 4 cumulative IPC: 4 (Simulation time: 00 hr 07 min 04 sec)
Heartbeat CPU 0 instructions: 30000000 cycles: 7500061 heartbeat IPC: 4 cumulative IPC: 4 (Simulation time: 00 hr 10 min 26 sec)
Heartbeat CPU 0 instructions: 40000000 cycles: 10000061 heartbeat IPC: 4 cumulative IPC: 4 (Simulation time: 00 hr 13 min 49 sec)
Heartbeat CPU 0 instructions: 50000000 cycles: 12500061 heartbeat IPC: 4 cumulative IPC: 4 (Simulation time: 00 hr 17 min 12 sec)
Warmup finished CPU 0 instructions: 50000000 cycles: 12500062 cumulative IPC: 4 (Simulation time: 00 hr 17 min 12 sec)
Warmup complete CPU 0 instructions: 50000000 cycles: 12500062 cumulative IPC: 4 (Simulation time: 00 hr 17 min 12 sec)
Heartbeat CPU 0 instructions: 60000002 cycles: 16444059 heartbeat IPC: 2.535 cumulative IPC: 2.535 (Simulation time: 00 hr 21 min 53 sec)
Heartbeat CPU 0 instructions: 70000003 cycles: 20759418 heartbeat IPC: 2.317 cumulative IPC: 2.421 (Simulation time: 00 hr 26 min 40 sec)
Heartbeat CPU 0 instructions: 80000003 cycles: 25227156 heartbeat IPC: 2.238 cumulative IPC: 2.357 (Simulation time: 00 hr 31 min 35 sec)
Heartbeat CPU 0 instructions: 90000000 cycles: 28918806 heartbeat IPC: 2.709 cumulative IPC: 2.436 (Simulation time: 00 hr 36 min 05 sec)
Heartbeat CPU 0 instructions: 100000003 cycles: 32815684 heartbeat IPC: 2.566 cumulative IPC: 2.461 (Simulation time: 00 hr 40 min 43 sec)
Heartbeat CPU 0 instructions: 110000002 cycles: 36916725 heartbeat IPC: 2.438 cumulative IPC: 2.457 (Simulation time: 00 hr 45 min 22 sec)
Heartbeat CPU 0 instructions: 120000001 cycles: 40632503 heartbeat IPC: 2.691 cumulative IPC: 2.488 (Simulation time: 00 hr 49 min 52 sec)
Heartbeat CPU 0 instructions: 130000003 cycles: 44402470 heartbeat IPC: 2.653 cumulative IPC: 2.508 (Simulation time: 00 hr 54 min 25 sec)
Heartbeat CPU 0 instructions: 140000002 cycles: 48535204 heartbeat IPC: 2.42 cumulative IPC: 2.498 (Simulation time: 00 hr 59 min 10 sec)
Heartbeat CPU 0 instructions: 150000001 cycles: 52587469 heartbeat IPC: 2.468 cumulative IPC: 2.495 (Simulation time: 01 hr 03 min 49 sec)
Heartbeat CPU 0 instructions: 160000000 cycles: 56245523 heartbeat IPC: 2.734 cumulative IPC: 2.515 (Simulation time: 01 hr 08 min 14 sec)
Heartbeat CPU 0 instructions: 170000001 cycles: 60418847 heartbeat IPC: 2.396 cumulative IPC: 2.504 (Simulation time: 01 hr 12 min 58 sec)
Heartbeat CPU 0 instructions: 180000001 cycles: 63878543 heartbeat IPC: 2.89 cumulative IPC: 2.53 (Simulation time: 01 hr 17 min 21 sec)
Heartbeat CPU 0 instructions: 190000002 cycles: 67461907 heartbeat IPC: 2.791 cumulative IPC: 2.547 (Simulation time: 01 hr 21 min 55 sec)
Heartbeat CPU 0 instructions: 200000002 cycles: 71245565 heartbeat IPC: 2.643 cumulative IPC: 2.553 (Simulation time: 01 hr 26 min 30 sec)
Heartbeat CPU 0 instructions: 210000000 cycles: 74884203 heartbeat IPC: 2.748 cumulative IPC: 2.565 (Simulation time: 01 hr 30 min 58 sec)
Heartbeat CPU 0 instructions: 220000001 cycles: 78749851 heartbeat IPC: 2.587 cumulative IPC: 2.566 (Simulation time: 01 hr 35 min 32 sec)
Heartbeat CPU 0 instructions: 230000002 cycles: 82590327 heartbeat IPC: 2.604 cumulative IPC: 2.568 (Simulation time: 01 hr 40 min 09 sec)
Heartbeat CPU 0 instructions: 240000001 cycles: 86794328 heartbeat IPC: 2.379 cumulative IPC: 2.557 (Simulation time: 01 hr 44 min 54 sec)
Heartbeat CPU 0 instructions: 250000003 cycles: 91360549 heartbeat IPC: 2.19 cumulative IPC: 2.536 (Simulation time: 01 hr 49 min 52 sec)
Heartbeat CPU 0 instructions: 260000000 cycles: 95153132 heartbeat IPC: 2.637 cumulative IPC: 2.541 (Simulation time: 01 hr 54 min 28 sec)
Heartbeat CPU 0 instructions: 270000003 cycles: 102291017 heartbeat IPC: 1.401 cumulative IPC: 2.45 (Simulation time: 02 hr 01 min 13 sec)
Heartbeat CPU 0 instructions: 280000000 cycles: 114538238 heartbeat IPC: 0.8165 cumulative IPC: 2.254 (Simulation time: 02 hr 11 min 16 sec)
Heartbeat CPU 0 instructions: 290000000 cycles: 126379770 heartbeat IPC: 0.8445 cumulative IPC: 2.107 (Simulation time: 02 hr 21 min 00 sec)
Heartbeat CPU 0 instructions: 300000003 cycles: 134188078 heartbeat IPC: 1.281 cumulative IPC: 2.054 (Simulation time: 02 hr 28 min 28 sec)
Heartbeat CPU 0 instructions: 310000004 cycles: 146147872 heartbeat IPC: 0.8361 cumulative IPC: 1.945 (Simulation time: 02 hr 38 min 40 sec)
Heartbeat CPU 0 instructions: 320000004 cycles: 151447979 heartbeat IPC: 1.887 cumulative IPC: 1.943 (Simulation time: 02 hr 44 min 25 sec)
Heartbeat CPU 0 instructions: 330000000 cycles: 155526746 heartbeat IPC: 2.452 cumulative IPC: 1.958 (Simulation time: 02 hr 49 min 18 sec)
Heartbeat CPU 0 instructions: 340000001 cycles: 159823376 heartbeat IPC: 2.327 cumulative IPC: 1.968 (Simulation time: 02 hr 54 min 15 sec)
Heartbeat CPU 0 instructions: 350000004 cycles: 164017947 heartbeat IPC: 2.384 cumulative IPC: 1.98 (Simulation time: 02 hr 59 min 07 sec)
Heartbeat CPU 0 instructions: 360000003 cycles: 167775568 heartbeat IPC: 2.661 cumulative IPC: 1.996 (Simulation time: 03 hr 03 min 47 sec)
Heartbeat CPU 0 instructions: 370000001 cycles: 171452025 heartbeat IPC: 2.72 cumulative IPC: 2.013 (Simulation time: 03 hr 08 min 25 sec)
Heartbeat CPU 0 instructions: 380000004 cycles: 174992638 heartbeat IPC: 2.824 cumulative IPC: 2.031 (Simulation time: 03 hr 12 min 50 sec)
Heartbeat CPU 0 instructions: 390000002 cycles: 178703051 heartbeat IPC: 2.695 cumulative IPC: 2.046 (Simulation time: 03 hr 17 min 29 sec)
Heartbeat CPU 0 instructions: 400000000 cycles: 182598966 heartbeat IPC: 2.567 cumulative IPC: 2.058 (Simulation time: 03 hr 22 min 12 sec)
Heartbeat CPU 0 instructions: 410000000 cycles: 189752424 heartbeat IPC: 1.398 cumulative IPC: 2.031 (Simulation time: 03 hr 28 min 58 sec)
Heartbeat CPU 0 instructions: 420000003 cycles: 201887527 heartbeat IPC: 0.8241 cumulative IPC: 1.954 (Simulation time: 03 hr 39 min 00 sec)
Heartbeat CPU 0 instructions: 430000000 cycles: 209884059 heartbeat IPC: 1.251 cumulative IPC: 1.925 (Simulation time: 03 hr 46 min 42 sec)
Heartbeat CPU 0 instructions: 440000004 cycles: 218131858 heartbeat IPC: 1.212 cumulative IPC: 1.897 (Simulation time: 03 hr 54 min 31 sec)
Heartbeat CPU 0 instructions: 450000000 cycles: 225879184 heartbeat IPC: 1.291 cumulative IPC: 1.875 (Simulation time: 04 hr 01 min 56 sec)
Heartbeat CPU 0 instructions: 460000002 cycles: 239757336 heartbeat IPC: 0.7206 cumulative IPC: 1.804 (Simulation time: 04 hr 13 min 06 sec)
Heartbeat CPU 0 instructions: 470000003 cycles: 250215848 heartbeat IPC: 0.9562 cumulative IPC: 1.767 (Simulation time: 04 hr 22 min 10 sec)
Heartbeat CPU 0 instructions: 480000003 cycles: 254622074 heartbeat IPC: 2.27 cumulative IPC: 1.776 (Simulation time: 04 hr 27 min 11 sec)
Heartbeat CPU 0 instructions: 490000001 cycles: 258949103 heartbeat IPC: 2.311 cumulative IPC: 1.785 (Simulation time: 04 hr 32 min 08 sec)
Heartbeat CPU 0 instructions: 500000002 cycles: 262851901 heartbeat IPC: 2.562 cumulative IPC: 1.797 (Simulation time: 04 hr 36 min 48 sec)
Heartbeat CPU 0 instructions: 510000000 cycles: 266423642 heartbeat IPC: 2.8 cumulative IPC: 1.812 (Simulation time: 04 hr 41 min 22 sec)
Heartbeat CPU 0 instructions: 520000000 cycles: 270154408 heartbeat IPC: 2.68 cumulative IPC: 1.824 (Simulation time: 04 hr 46 min 01 sec)
Heartbeat CPU 0 instructions: 530000001 cycles: 281639041 heartbeat IPC: 0.8707 cumulative IPC: 1.783 (Simulation time: 04 hr 55 min 37 sec)
Heartbeat CPU 0 instructions: 540000000 cycles: 294422314 heartbeat IPC: 0.7823 cumulative IPC: 1.738 (Simulation time: 05 hr 06 min 11 sec)
Heartbeat CPU 0 instructions: 550000004 cycles: 308849458 heartbeat IPC: 0.6931 cumulative IPC: 1.687 (Simulation time: 05 hr 17 min 48 sec)
Heartbeat CPU 0 instructions: 560000004 cycles: 313408692 heartbeat IPC: 2.193 cumulative IPC: 1.695 (Simulation time: 05 hr 22 min 56 sec)
Heartbeat CPU 0 instructions: 570000001 cycles: 316542080 heartbeat IPC: 3.191 cumulative IPC: 1.71 (Simulation time: 05 hr 27 min 33 sec)
Heartbeat CPU 0 instructions: 580000003 cycles: 320086588 heartbeat IPC: 2.821 cumulative IPC: 1.723 (Simulation time: 05 hr 32 min 23 sec)
Heartbeat CPU 0 instructions: 590000002 cycles: 323709144 heartbeat IPC: 2.76 cumulative IPC: 1.735 (Simulation time: 05 hr 37 min 12 sec)
Heartbeat CPU 0 instructions: 600000003 cycles: 326776018 heartbeat IPC: 3.261 cumulative IPC: 1.75 (Simulation time: 05 hr 41 min 31 sec)
Heartbeat CPU 0 instructions: 610000001 cycles: 330290276 heartbeat IPC: 2.846 cumulative IPC: 1.762 (Simulation time: 05 hr 46 min 10 sec)
Heartbeat CPU 0 instructions: 620000000 cycles: 334308260 heartbeat IPC: 2.489 cumulative IPC: 1.771 (Simulation time: 05 hr 51 min 21 sec)
Heartbeat CPU 0 instructions: 630000002 cycles: 337676478 heartbeat IPC: 2.969 cumulative IPC: 1.784 (Simulation time: 05 hr 55 min 57 sec)
Heartbeat CPU 0 instructions: 640000004 cycles: 341691912 heartbeat IPC: 2.49 cumulative IPC: 1.792 (Simulation time: 06 hr 01 min 00 sec)
Heartbeat CPU 0 instructions: 650000001 cycles: 345515724 heartbeat IPC: 2.615 cumulative IPC: 1.802 (Simulation time: 06 hr 06 min 07 sec)
Simulation finished CPU 0 instructions: 600000001 cycles: 333015663 cumulative IPC: 1.802 (Simulation time: 06 hr 06 min 07 sec)
Simulation complete CPU 0 instructions: 600000001 cycles: 333015663 cumulative IPC: 1.802 (Simulation time: 06 hr 06 min 07 sec)

ChampSim completed all CPUs

=== Simulation ===
CPU 0 runs traces/400.perlbench-50B.champsimtrace.xz
Region of Interest Statistics

CPU 0 cumulative IPC: 1.802 instructions: 600000001 cycles: 333015663
CPU 0 Branch Prediction Accuracy: 96.2% MPKI: 7.839 Average ROB Occupancy at Mispredict: 43.66
Branch type MPKI
BRANCH_DIRECT_JUMP: 0.0176
BRANCH_INDIRECT: 0.38
BRANCH_CONDITIONAL: 6.99
BRANCH_DIRECT_CALL: 0.0067
BRANCH_INDIRECT_CALL: 0.431
BRANCH_RETURN: 0.0161

LLC TOTAL        ACCESS:     565601 HIT:     180741 MISS:     384860
LLC LOAD         ACCESS:     376499 HIT:     111452 MISS:     265047
LLC RFO          ACCESS:      32887 HIT:       8269 MISS:      24618
LLC PREFETCH     ACCESS:      54431 HIT:      27945 MISS:      26486
LLC WRITE        ACCESS:      83724 HIT:      31233 MISS:      52491
LLC TRANSLATION  ACCESS:      18060 HIT:       1842 MISS:      16218
LLC PREFETCH REQUESTED:      54431 ISSUED:      54431 USEFUL:      15286 USELESS:       7164
LLC AVERAGE MISS LATENCY: 487.3 cycles
cpu0_DTLB TOTAL        ACCESS:  146457341 HIT:  145154379 MISS:    1302962
cpu0_DTLB LOAD         ACCESS:  146457341 HIT:  145154379 MISS:    1302962
cpu0_DTLB RFO          ACCESS:          0 HIT:          0 MISS:          0
cpu0_DTLB PREFETCH     ACCESS:          0 HIT:          0 MISS:          0
cpu0_DTLB WRITE        ACCESS:          0 HIT:          0 MISS:          0
cpu0_DTLB TRANSLATION  ACCESS:          0 HIT:          0 MISS:          0
cpu0_DTLB PREFETCH REQUESTED:          0 ISSUED:          0 USEFUL:          0 USELESS:          0
cpu0_DTLB AVERAGE MISS LATENCY: 14.02 cycles
cpu0_ITLB TOTAL        ACCESS:    8987700 HIT:    8802959 MISS:     184741
cpu0_ITLB LOAD         ACCESS:    8987700 HIT:    8802959 MISS:     184741
cpu0_ITLB RFO          ACCESS:          0 HIT:          0 MISS:          0
cpu0_ITLB PREFETCH     ACCESS:          0 HIT:          0 MISS:          0
cpu0_ITLB WRITE        ACCESS:          0 HIT:          0 MISS:          0
cpu0_ITLB TRANSLATION  ACCESS:          0 HIT:          0 MISS:          0
cpu0_ITLB PREFETCH REQUESTED:          0 ISSUED:          0 USEFUL:          0 USELESS:          0
cpu0_ITLB AVERAGE MISS LATENCY: 3.957 cycles
cpu0_L1D TOTAL        ACCESS:  193270770 HIT:  190421917 MISS:    2848853
cpu0_L1D LOAD         ACCESS:  107424188 HIT:  105081421 MISS:    2342767
cpu0_L1D RFO          ACCESS:          0 HIT:          0 MISS:          0
cpu0_L1D PREFETCH     ACCESS:          0 HIT:          0 MISS:          0
cpu0_L1D WRITE        ACCESS:   85818053 HIT:   85338482 MISS:     479571
cpu0_L1D TRANSLATION  ACCESS:      28529 HIT:       2014 MISS:      26515
cpu0_L1D PREFETCH REQUESTED:          0 ISSUED:          0 USEFUL:          0 USELESS:          0
cpu0_L1D AVERAGE MISS LATENCY: 62.21 cycles
cpu0_L1I TOTAL        ACCESS:   10421701 HIT:    8658628 MISS:    1763073
cpu0_L1I LOAD         ACCESS:   10421701 HIT:    8658628 MISS:    1763073
cpu0_L1I RFO          ACCESS:          0 HIT:          0 MISS:          0
cpu0_L1I PREFETCH     ACCESS:          0 HIT:          0 MISS:          0
cpu0_L1I WRITE        ACCESS:          0 HIT:          0 MISS:          0
cpu0_L1I TRANSLATION  ACCESS:          0 HIT:          0 MISS:          0
cpu0_L1I PREFETCH REQUESTED:          0 ISSUED:          0 USEFUL:          0 USELESS:          0
cpu0_L1I AVERAGE MISS LATENCY: 14.38 cycles
cpu0_L2C TOTAL        ACCESS:    3232236 HIT:    2803859 MISS:     428377
cpu0_L2C LOAD         ACCESS:    2710093 HIT:    2333594 MISS:     376499
cpu0_L2C RFO          ACCESS:     133272 HIT:     100385 MISS:      32887
cpu0_L2C PREFETCH     ACCESS:          0 HIT:          0 MISS:          0
cpu0_L2C WRITE        ACCESS:     362426 HIT:     361495 MISS:        931
cpu0_L2C TRANSLATION  ACCESS:      26445 HIT:       8385 MISS:      18060
cpu0_L2C PREFETCH REQUESTED:          0 ISSUED:          0 USEFUL:          0 USELESS:          0
cpu0_L2C AVERAGE MISS LATENCY: 422.9 cycles
cpu0_STLB TOTAL        ACCESS:    1008398 HIT:     981705 MISS:      26693
cpu0_STLB LOAD         ACCESS:    1008398 HIT:     981705 MISS:      26693
cpu0_STLB RFO          ACCESS:          0 HIT:          0 MISS:          0
cpu0_STLB PREFETCH     ACCESS:          0 HIT:          0 MISS:          0
cpu0_STLB WRITE        ACCESS:          0 HIT:          0 MISS:          0
cpu0_STLB TRANSLATION  ACCESS:          0 HIT:          0 MISS:          0
cpu0_STLB PREFETCH REQUESTED:          0 ISSUED:          0 USEFUL:          0 USELESS:          0
cpu0_STLB AVERAGE MISS LATENCY: 472.3 cycles

DRAM Statistics

Channel 0 RQ ROW_BUFFER_HIT:      51693
  ROW_BUFFER_MISS:     275402
 AVG DBUS CONGESTED CYCLE: 3.841
WQ ROW_BUFFER_HIT: Channel 0 
  ROW_BUFFER_MISS:      10032
  FULL:      48407
