WARNING: physical memory size is smaller than virtual memory size.

*** ChampSim Multicore Out-of-Order Simulator ***
Warmup Instructions: 50000000
Simulation Instructions: 600000000
Number of CPUs: 1
Page size: 4096

CPU 0 Tage branch predictor
Off-chip DRAM Size: 4 GiB Channels: 1 Width: 64-bit Data Race: 3200 MT/s
Heartbeat CPU 0 instructions: 10000000 cycles: 2500061 heartbeat IPC: 4 cumulative IPC: 4 (Simulation time: 00 hr 04 min 05 sec)
Heartbeat CPU 0 instructions: 20000000 cycles: 5000061 heartbeat IPC: 4 cumulative IPC: 4 (Simulation time: 00 hr 08 min 11 sec)
Heartbeat CPU 0 instructions: 30000000 cycles: 7500061 heartbeat IPC: 4 cumulative IPC: 4 (Simulation time: 00 hr 12 min 16 sec)
Heartbeat CPU 0 instructions: 40000000 cycles: 10000061 heartbeat IPC: 4 cumulative IPC: 4 (Simulation time: 00 hr 16 min 16 sec)
Heartbeat CPU 0 instructions: 50000000 cycles: 12500061 heartbeat IPC: 4 cumulative IPC: 4 (Simulation time: 00 hr 20 min 22 sec)
Warmup finished CPU 0 instructions: 50000000 cycles: 12500062 cumulative IPC: 4 (Simulation time: 00 hr 20 min 22 sec)
Warmup complete CPU 0 instructions: 50000000 cycles: 12500062 cumulative IPC: 4 (Simulation time: 00 hr 20 min 22 sec)
Heartbeat CPU 0 instructions: 60000004 cycles: 15504100 heartbeat IPC: 3.329 cumulative IPC: 3.329 (Simulation time: 00 hr 25 min 29 sec)
Heartbeat CPU 0 instructions: 70000003 cycles: 18373617 heartbeat IPC: 3.485 cumulative IPC: 3.405 (Simulation time: 00 hr 30 min 21 sec)
Heartbeat CPU 0 instructions: 80000002 cycles: 21383533 heartbeat IPC: 3.322 cumulative IPC: 3.377 (Simulation time: 00 hr 35 min 17 sec)
Heartbeat CPU 0 instructions: 90000000 cycles: 24104255 heartbeat IPC: 3.675 cumulative IPC: 3.447 (Simulation time: 00 hr 40 min 14 sec)
Heartbeat CPU 0 instructions: 100000003 cycles: 26859330 heartbeat IPC: 3.63 cumulative IPC: 3.482 (Simulation time: 00 hr 45 min 01 sec)
Heartbeat CPU 0 instructions: 110000001 cycles: 29757799 heartbeat IPC: 3.45 cumulative IPC: 3.477 (Simulation time: 00 hr 49 min 50 sec)
Heartbeat CPU 0 instructions: 120000001 cycles: 32473952 heartbeat IPC: 3.682 cumulative IPC: 3.505 (Simulation time: 00 hr 54 min 50 sec)
Heartbeat CPU 0 instructions: 130000003 cycles: 35370630 heartbeat IPC: 3.452 cumulative IPC: 3.498 (Simulation time: 00 hr 59 min 39 sec)
Heartbeat CPU 0 instructions: 140000002 cycles: 38206882 heartbeat IPC: 3.526 cumulative IPC: 3.501 (Simulation time: 01 hr 04 min 30 sec)
Heartbeat CPU 0 instructions: 150000001 cycles: 40975811 heartbeat IPC: 3.612 cumulative IPC: 3.512 (Simulation time: 01 hr 09 min 22 sec)
Heartbeat CPU 0 instructions: 160000000 cycles: 43893181 heartbeat IPC: 3.428 cumulative IPC: 3.504 (Simulation time: 01 hr 14 min 09 sec)
Heartbeat CPU 0 instructions: 170000001 cycles: 46816650 heartbeat IPC: 3.421 cumulative IPC: 3.497 (Simulation time: 01 hr 19 min 06 sec)
Heartbeat CPU 0 instructions: 180000000 cycles: 49608626 heartbeat IPC: 3.582 cumulative IPC: 3.503 (Simulation time: 01 hr 23 min 59 sec)
Heartbeat CPU 0 instructions: 190000002 cycles: 52314925 heartbeat IPC: 3.695 cumulative IPC: 3.516 (Simulation time: 01 hr 28 min 49 sec)
Heartbeat CPU 0 instructions: 200000002 cycles: 55138402 heartbeat IPC: 3.542 cumulative IPC: 3.518 (Simulation time: 01 hr 33 min 45 sec)
Heartbeat CPU 0 instructions: 210000000 cycles: 58028965 heartbeat IPC: 3.46 cumulative IPC: 3.514 (Simulation time: 01 hr 38 min 38 sec)
Heartbeat CPU 0 instructions: 220000001 cycles: 60778012 heartbeat IPC: 3.638 cumulative IPC: 3.521 (Simulation time: 01 hr 43 min 25 sec)
Heartbeat CPU 0 instructions: 230000002 cycles: 63666549 heartbeat IPC: 3.462 cumulative IPC: 3.518 (Simulation time: 01 hr 48 min 20 sec)
Heartbeat CPU 0 instructions: 240000004 cycles: 66617585 heartbeat IPC: 3.389 cumulative IPC: 3.511 (Simulation time: 01 hr 53 min 17 sec)
Heartbeat CPU 0 instructions: 250000003 cycles: 69507854 heartbeat IPC: 3.46 cumulative IPC: 3.508 (Simulation time: 01 hr 58 min 05 sec)
Heartbeat CPU 0 instructions: 260000001 cycles: 72292998 heartbeat IPC: 3.59 cumulative IPC: 3.512 (Simulation time: 02 hr 02 min 56 sec)
Heartbeat CPU 0 instructions: 270000002 cycles: 78115113 heartbeat IPC: 1.718 cumulative IPC: 3.353 (Simulation time: 02 hr 09 min 52 sec)
Heartbeat CPU 0 instructions: 280000000 cycles: 87413134 heartbeat IPC: 1.075 cumulative IPC: 3.07 (Simulation time: 02 hr 19 min 18 sec)
Heartbeat CPU 0 instructions: 290000000 cycles: 95028869 heartbeat IPC: 1.313 cumulative IPC: 2.908 (Simulation time: 02 hr 27 min 50 sec)
Heartbeat CPU 0 instructions: 300000003 cycles: 100203775 heartbeat IPC: 1.932 cumulative IPC: 2.851 (Simulation time: 02 hr 35 min 00 sec)
Heartbeat CPU 0 instructions: 310000001 cycles: 108367563 heartbeat IPC: 1.225 cumulative IPC: 2.712 (Simulation time: 02 hr 44 min 00 sec)
Heartbeat CPU 0 instructions: 320000004 cycles: 112127131 heartbeat IPC: 2.66 cumulative IPC: 2.71 (Simulation time: 02 hr 49 min 41 sec)
Heartbeat CPU 0 instructions: 330000000 cycles: 115284444 heartbeat IPC: 3.167 cumulative IPC: 2.724 (Simulation time: 02 hr 55 min 01 sec)
Heartbeat CPU 0 instructions: 340000001 cycles: 118468415 heartbeat IPC: 3.141 cumulative IPC: 2.737 (Simulation time: 03 hr 00 min 40 sec)
Heartbeat CPU 0 instructions: 350000000 cycles: 121818337 heartbeat IPC: 2.985 cumulative IPC: 2.744 (Simulation time: 03 hr 06 min 04 sec)
Heartbeat CPU 0 instructions: 360000004 cycles: 124963784 heartbeat IPC: 3.179 cumulative IPC: 2.756 (Simulation time: 03 hr 11 min 17 sec)
Heartbeat CPU 0 instructions: 370000001 cycles: 128058949 heartbeat IPC: 3.231 cumulative IPC: 2.769 (Simulation time: 03 hr 16 min 28 sec)
Heartbeat CPU 0 instructions: 380000004 cycles: 131163051 heartbeat IPC: 3.222 cumulative IPC: 2.781 (Simulation time: 03 hr 21 min 39 sec)
Heartbeat CPU 0 instructions: 390000002 cycles: 134433548 heartbeat IPC: 3.058 cumulative IPC: 2.788 (Simulation time: 03 hr 27 min 06 sec)
Heartbeat CPU 0 instructions: 400000000 cycles: 137735017 heartbeat IPC: 3.029 cumulative IPC: 2.795 (Simulation time: 03 hr 32 min 27 sec)
Heartbeat CPU 0 instructions: 410000000 cycles: 144045158 heartbeat IPC: 1.585 cumulative IPC: 2.737 (Simulation time: 03 hr 39 min 48 sec)
Heartbeat CPU 0 instructions: 420000003 cycles: 152939522 heartbeat IPC: 1.124 cumulative IPC: 2.635 (Simulation time: 03 hr 49 min 07 sec)
Heartbeat CPU 0 instructions: 430000004 cycles: 158600847 heartbeat IPC: 1.766 cumulative IPC: 2.601 (Simulation time: 03 hr 56 min 49 sec)
Heartbeat CPU 0 instructions: 440000004 cycles: 163508452 heartbeat IPC: 2.038 cumulative IPC: 2.583 (Simulation time: 04 hr 03 min 29 sec)
Heartbeat CPU 0 instructions: 450000000 cycles: 168207840 heartbeat IPC: 2.128 cumulative IPC: 2.569 (Simulation time: 04 hr 10 min 01 sec)
Heartbeat CPU 0 instructions: 460000002 cycles: 176247246 heartbeat IPC: 1.244 cumulative IPC: 2.504 (Simulation time: 04 hr 18 min 53 sec)
Heartbeat CPU 0 instructions: 470000003 cycles: 183688513 heartbeat IPC: 1.344 cumulative IPC: 2.453 (Simulation time: 04 hr 27 min 17 sec)
Heartbeat CPU 0 instructions: 480000000 cycles: 187095989 heartbeat IPC: 2.935 cumulative IPC: 2.463 (Simulation time: 04 hr 32 min 39 sec)
Heartbeat CPU 0 instructions: 490000001 cycles: 190722464 heartbeat IPC: 2.757 cumulative IPC: 2.469 (Simulation time: 04 hr 38 min 15 sec)
Heartbeat CPU 0 instructions: 500000002 cycles: 194227253 heartbeat IPC: 2.853 cumulative IPC: 2.476 (Simulation time: 04 hr 43 min 52 sec)
Heartbeat CPU 0 instructions: 510000000 cycles: 197670004 heartbeat IPC: 2.905 cumulative IPC: 2.484 (Simulation time: 04 hr 49 min 19 sec)
Heartbeat CPU 0 instructions: 520000000 cycles: 201141845 heartbeat IPC: 2.88 cumulative IPC: 2.491 (Simulation time: 04 hr 54 min 52 sec)
Heartbeat CPU 0 instructions: 530000001 cycles: 210423177 heartbeat IPC: 1.077 cumulative IPC: 2.425 (Simulation time: 05 hr 04 min 19 sec)
Heartbeat CPU 0 instructions: 540000000 cycles: 219312365 heartbeat IPC: 1.125 cumulative IPC: 2.369 (Simulation time: 05 hr 13 min 46 sec)
Heartbeat CPU 0 instructions: 550000004 cycles: 229277608 heartbeat IPC: 1.003 cumulative IPC: 2.307 (Simulation time: 05 hr 23 min 54 sec)
Heartbeat CPU 0 instructions: 560000004 cycles: 232902891 heartbeat IPC: 2.758 cumulative IPC: 2.314 (Simulation time: 05 hr 29 min 19 sec)
Heartbeat CPU 0 instructions: 570000002 cycles: 235722804 heartbeat IPC: 3.546 cumulative IPC: 2.33 (Simulation time: 05 hr 34 min 18 sec)
Heartbeat CPU 0 instructions: 580000000 cycles: 238647608 heartbeat IPC: 3.419 cumulative IPC: 2.344 (Simulation time: 05 hr 39 min 18 sec)
Heartbeat CPU 0 instructions: 590000001 cycles: 241573740 heartbeat IPC: 3.417 cumulative IPC: 2.357 (Simulation time: 05 hr 44 min 18 sec)
Heartbeat CPU 0 instructions: 600000003 cycles: 244264217 heartbeat IPC: 3.717 cumulative IPC: 2.373 (Simulation time: 05 hr 49 min 25 sec)
Heartbeat CPU 0 instructions: 610000001 cycles: 247128864 heartbeat IPC: 3.491 cumulative IPC: 2.387 (Simulation time: 05 hr 54 min 27 sec)
Heartbeat CPU 0 instructions: 620000004 cycles: 250081955 heartbeat IPC: 3.386 cumulative IPC: 2.399 (Simulation time: 05 hr 59 min 27 sec)
Heartbeat CPU 0 instructions: 630000002 cycles: 252893521 heartbeat IPC: 3.557 cumulative IPC: 2.413 (Simulation time: 06 hr 04 min 24 sec)
Heartbeat CPU 0 instructions: 640000004 cycles: 255941668 heartbeat IPC: 3.281 cumulative IPC: 2.424 (Simulation time: 06 hr 09 min 26 sec)
Heartbeat CPU 0 instructions: 650000001 cycles: 258653602 heartbeat IPC: 3.687 cumulative IPC: 2.438 (Simulation time: 06 hr 14 min 18 sec)
Simulation finished CPU 0 instructions: 600000001 cycles: 246153541 cumulative IPC: 2.438 (Simulation time: 06 hr 14 min 18 sec)
Simulation complete CPU 0 instructions: 600000001 cycles: 246153541 cumulative IPC: 2.438 (Simulation time: 06 hr 14 min 18 sec)

ChampSim completed all CPUs

=== Simulation ===
CPU 0 runs traces/400.perlbench-50B.champsimtrace.xz
Region of Interest Statistics

CPU 0 cumulative IPC: 2.438 instructions: 600000001 cycles: 246153541
CPU 0 Branch Prediction Accuracy: 99.01% MPKI: 2.04 Average ROB Occupancy at Mispredict: 94.11
Branch type MPKI
BRANCH_DIRECT_JUMP: 0.0176
BRANCH_INDIRECT: 0.38
BRANCH_CONDITIONAL: 1.19
BRANCH_DIRECT_CALL: 0.0067
BRANCH_INDIRECT_CALL: 0.431
BRANCH_RETURN: 0.0161

LLC TOTAL        ACCESS:     565127 HIT:     236568 MISS:     328559
LLC LOAD         ACCESS:     376052 HIT:     111372 MISS:     264680
LLC RFO          ACCESS:      32706 HIT:      12012 MISS:      20694
LLC PREFETCH     ACCESS:      54378 HIT:      24717 MISS:      29661
LLC WRITE        ACCESS:      83673 HIT:      82184 MISS:       1489
LLC TRANSLATION  ACCESS:      18318 HIT:       6283 MISS:      12035
LLC PREFETCH REQUESTED:      54378 ISSUED:      54378 USEFUL:      18755 USELESS:       6642
LLC AVERAGE MISS LATENCY: 619.5 cycles
cpu0_DTLB TOTAL        ACCESS:  133177407 HIT:  131828060 MISS:    1349347
cpu0_DTLB LOAD         ACCESS:  133177407 HIT:  131828060 MISS:    1349347
cpu0_DTLB RFO          ACCESS:          0 HIT:          0 MISS:          0
cpu0_DTLB PREFETCH     ACCESS:          0 HIT:          0 MISS:          0
cpu0_DTLB WRITE        ACCESS:          0 HIT:          0 MISS:          0
cpu0_DTLB TRANSLATION  ACCESS:          0 HIT:          0 MISS:          0
cpu0_DTLB PREFETCH REQUESTED:          0 ISSUED:          0 USEFUL:          0 USELESS:          0
cpu0_DTLB AVERAGE MISS LATENCY: 11.89 cycles
cpu0_ITLB TOTAL        ACCESS:    8999327 HIT:    8788959 MISS:     210368
cpu0_ITLB LOAD         ACCESS:    8999327 HIT:    8788959 MISS:     210368
cpu0_ITLB RFO          ACCESS:          0 HIT:          0 MISS:          0
cpu0_ITLB PREFETCH     ACCESS:          0 HIT:          0 MISS:          0
cpu0_ITLB WRITE        ACCESS:          0 HIT:          0 MISS:          0
cpu0_ITLB TRANSLATION  ACCESS:          0 HIT:          0 MISS:          0
cpu0_ITLB PREFETCH REQUESTED:          0 ISSUED:          0 USEFUL:          0 USELESS:          0
cpu0_ITLB AVERAGE MISS LATENCY: 3.056 cycles
cpu0_L1D TOTAL        ACCESS:  178246469 HIT:  175308924 MISS:    2937545
cpu0_L1D LOAD         ACCESS:   92728369 HIT:   90317505 MISS:    2410864
cpu0_L1D RFO          ACCESS:          0 HIT:          0 MISS:          0
cpu0_L1D PREFETCH     ACCESS:          0 HIT:          0 MISS:          0
cpu0_L1D WRITE        ACCESS:   85489564 HIT:   84989410 MISS:     500154
cpu0_L1D TRANSLATION  ACCESS:      28536 HIT:       2009 MISS:      26527
cpu0_L1D PREFETCH REQUESTED:          0 ISSUED:          0 USEFUL:          0 USELESS:          0
cpu0_L1D AVERAGE MISS LATENCY: 63.77 cycles
cpu0_L1I TOTAL        ACCESS:   10518330 HIT:    8617491 MISS:    1900839
cpu0_L1I LOAD         ACCESS:   10518330 HIT:    8617491 MISS:    1900839
cpu0_L1I RFO          ACCESS:          0 HIT:          0 MISS:          0
cpu0_L1I PREFETCH     ACCESS:          0 HIT:          0 MISS:          0
cpu0_L1I WRITE        ACCESS:          0 HIT:          0 MISS:          0
cpu0_L1I TRANSLATION  ACCESS:          0 HIT:          0 MISS:          0
cpu0_L1I PREFETCH REQUESTED:          0 ISSUED:          0 USEFUL:          0 USELESS:          0
cpu0_L1I AVERAGE MISS LATENCY: 10.77 cycles
cpu0_L2C TOTAL        ACCESS:    3236160 HIT:    2808175 MISS:     427985
cpu0_L2C LOAD         ACCESS:    2709160 HIT:    2333108 MISS:     376052
cpu0_L2C RFO          ACCESS:     135548 HIT:     102842 MISS:      32706
cpu0_L2C PREFETCH     ACCESS:          0 HIT:          0 MISS:          0
cpu0_L2C WRITE        ACCESS:     365006 HIT:     364097 MISS:        909
cpu0_L2C TRANSLATION  ACCESS:      26446 HIT:       8128 MISS:      18318
cpu0_L2C PREFETCH REQUESTED:          0 ISSUED:          0 USEFUL:          0 USELESS:          0
cpu0_L2C AVERAGE MISS LATENCY: 450.6 cycles
cpu0_STLB TOTAL        ACCESS:    1009733 HIT:     983041 MISS:      26692
cpu0_STLB LOAD         ACCESS:    1009733 HIT:     983041 MISS:      26692
cpu0_STLB RFO          ACCESS:          0 HIT:          0 MISS:          0
cpu0_STLB PREFETCH     ACCESS:          0 HIT:          0 MISS:          0
cpu0_STLB WRITE        ACCESS:          0 HIT:          0 MISS:          0
cpu0_STLB TRANSLATION  ACCESS:          0 HIT:          0 MISS:          0
cpu0_STLB PREFETCH REQUESTED:          0 ISSUED:          0 USEFUL:          0 USELESS:          0
cpu0_STLB AVERAGE MISS LATENCY: 400.2 cycles

DRAM Statistics

Channel 0 RQ ROW_BUFFER_HIT:      67221
  ROW_BUFFER_MISS:     253829
 AVG DBUS CONGESTED CYCLE: 3.851
WQ ROW_BUFFER_HIT: Channel 0 
  ROW_BUFFER_MISS:       5729
  FULL:      44084
