WARNING: physical memory size is smaller than virtual memory size.

*** ChampSim Multicore Out-of-Order Simulator ***
Warmup Instructions: 50000000
Simulation Instructions: 600000000
Number of CPUs: 1
Page size: 4096

CPU 0 Tage branch predictor
Off-chip DRAM Size: 4 GiB Channels: 1 Width: 64-bit Data Race: 3200 MT/s
Heartbeat CPU 0 instructions: 10000000 cycles: 2500061 heartbeat IPC: 4 cumulative IPC: 4 (Simulation time: 00 hr 04 min 44 sec)
Heartbeat CPU 0 instructions: 20000000 cycles: 5000061 heartbeat IPC: 4 cumulative IPC: 4 (Simulation time: 00 hr 09 min 03 sec)
Heartbeat CPU 0 instructions: 30000000 cycles: 7500061 heartbeat IPC: 4 cumulative IPC: 4 (Simulation time: 00 hr 13 min 11 sec)
Heartbeat CPU 0 instructions: 40000000 cycles: 10000061 heartbeat IPC: 4 cumulative IPC: 4 (Simulation time: 00 hr 17 min 31 sec)
Heartbeat CPU 0 instructions: 50000000 cycles: 12500061 heartbeat IPC: 4 cumulative IPC: 4 (Simulation time: 00 hr 21 min 47 sec)
Warmup finished CPU 0 instructions: 50000000 cycles: 12500062 cumulative IPC: 4 (Simulation time: 00 hr 21 min 47 sec)
Warmup complete CPU 0 instructions: 50000000 cycles: 12500062 cumulative IPC: 4 (Simulation time: 00 hr 21 min 47 sec)
Heartbeat CPU 0 instructions: 60000004 cycles: 15503998 heartbeat IPC: 3.329 cumulative IPC: 3.329 (Simulation time: 00 hr 26 min 49 sec)
Heartbeat CPU 0 instructions: 70000003 cycles: 18369852 heartbeat IPC: 3.489 cumulative IPC: 3.407 (Simulation time: 00 hr 31 min 45 sec)
Heartbeat CPU 0 instructions: 80000002 cycles: 21380918 heartbeat IPC: 3.321 cumulative IPC: 3.378 (Simulation time: 00 hr 36 min 57 sec)
Heartbeat CPU 0 instructions: 90000000 cycles: 24098695 heartbeat IPC: 3.679 cumulative IPC: 3.449 (Simulation time: 00 hr 41 min 36 sec)
Heartbeat CPU 0 instructions: 100000003 cycles: 26855195 heartbeat IPC: 3.628 cumulative IPC: 3.483 (Simulation time: 00 hr 46 min 26 sec)
Heartbeat CPU 0 instructions: 110000001 cycles: 29752526 heartbeat IPC: 3.451 cumulative IPC: 3.478 (Simulation time: 00 hr 51 min 13 sec)
Heartbeat CPU 0 instructions: 120000001 cycles: 32468927 heartbeat IPC: 3.681 cumulative IPC: 3.505 (Simulation time: 00 hr 55 min 59 sec)
Heartbeat CPU 0 instructions: 130000003 cycles: 35368195 heartbeat IPC: 3.449 cumulative IPC: 3.498 (Simulation time: 01 hr 00 min 50 sec)
Heartbeat CPU 0 instructions: 140000002 cycles: 38202123 heartbeat IPC: 3.529 cumulative IPC: 3.502 (Simulation time: 01 hr 05 min 38 sec)
Heartbeat CPU 0 instructions: 150000001 cycles: 40972190 heartbeat IPC: 3.61 cumulative IPC: 3.512 (Simulation time: 01 hr 10 min 23 sec)
Heartbeat CPU 0 instructions: 160000000 cycles: 43889670 heartbeat IPC: 3.428 cumulative IPC: 3.504 (Simulation time: 01 hr 15 min 14 sec)
Heartbeat CPU 0 instructions: 170000001 cycles: 46817544 heartbeat IPC: 3.415 cumulative IPC: 3.497 (Simulation time: 01 hr 20 min 06 sec)
Heartbeat CPU 0 instructions: 180000000 cycles: 49608288 heartbeat IPC: 3.583 cumulative IPC: 3.503 (Simulation time: 01 hr 24 min 59 sec)
Heartbeat CPU 0 instructions: 190000002 cycles: 52316250 heartbeat IPC: 3.693 cumulative IPC: 3.516 (Simulation time: 01 hr 29 min 52 sec)
Heartbeat CPU 0 instructions: 200000002 cycles: 55136667 heartbeat IPC: 3.546 cumulative IPC: 3.518 (Simulation time: 01 hr 34 min 47 sec)
Heartbeat CPU 0 instructions: 210000000 cycles: 58029132 heartbeat IPC: 3.457 cumulative IPC: 3.514 (Simulation time: 01 hr 39 min 36 sec)
Heartbeat CPU 0 instructions: 220000001 cycles: 60781160 heartbeat IPC: 3.634 cumulative IPC: 3.521 (Simulation time: 01 hr 44 min 30 sec)
Heartbeat CPU 0 instructions: 230000002 cycles: 63670325 heartbeat IPC: 3.461 cumulative IPC: 3.518 (Simulation time: 01 hr 49 min 23 sec)
Heartbeat CPU 0 instructions: 240000004 cycles: 66621070 heartbeat IPC: 3.389 cumulative IPC: 3.511 (Simulation time: 01 hr 54 min 15 sec)
Heartbeat CPU 0 instructions: 250000003 cycles: 69511506 heartbeat IPC: 3.46 cumulative IPC: 3.508 (Simulation time: 01 hr 59 min 10 sec)
Heartbeat CPU 0 instructions: 260000001 cycles: 72296303 heartbeat IPC: 3.591 cumulative IPC: 3.512 (Simulation time: 02 hr 04 min 01 sec)
Heartbeat CPU 0 instructions: 270000002 cycles: 78127143 heartbeat IPC: 1.715 cumulative IPC: 3.352 (Simulation time: 02 hr 10 min 55 sec)
Heartbeat CPU 0 instructions: 280000000 cycles: 87412964 heartbeat IPC: 1.077 cumulative IPC: 3.07 (Simulation time: 02 hr 20 min 13 sec)
Heartbeat CPU 0 instructions: 290000000 cycles: 95038194 heartbeat IPC: 1.311 cumulative IPC: 2.908 (Simulation time: 02 hr 28 min 32 sec)
Heartbeat CPU 0 instructions: 300000003 cycles: 100171212 heartbeat IPC: 1.948 cumulative IPC: 2.852 (Simulation time: 02 hr 35 min 20 sec)
Heartbeat CPU 0 instructions: 310000001 cycles: 108248530 heartbeat IPC: 1.238 cumulative IPC: 2.715 (Simulation time: 02 hr 44 min 09 sec)
Heartbeat CPU 0 instructions: 320000004 cycles: 112004247 heartbeat IPC: 2.663 cumulative IPC: 2.713 (Simulation time: 02 hr 49 min 52 sec)
Heartbeat CPU 0 instructions: 330000000 cycles: 115160797 heartbeat IPC: 3.168 cumulative IPC: 2.727 (Simulation time: 02 hr 55 min 01 sec)
Heartbeat CPU 0 instructions: 340000001 cycles: 118343453 heartbeat IPC: 3.142 cumulative IPC: 2.74 (Simulation time: 03 hr 00 min 11 sec)
Heartbeat CPU 0 instructions: 350000000 cycles: 121686067 heartbeat IPC: 2.992 cumulative IPC: 2.748 (Simulation time: 03 hr 05 min 27 sec)
Heartbeat CPU 0 instructions: 360000004 cycles: 124829904 heartbeat IPC: 3.181 cumulative IPC: 2.76 (Simulation time: 03 hr 10 min 39 sec)
Heartbeat CPU 0 instructions: 370000001 cycles: 127919877 heartbeat IPC: 3.236 cumulative IPC: 2.772 (Simulation time: 03 hr 15 min 47 sec)
Heartbeat CPU 0 instructions: 380000004 cycles: 131024465 heartbeat IPC: 3.221 cumulative IPC: 2.784 (Simulation time: 03 hr 20 min 54 sec)
Heartbeat CPU 0 instructions: 390000002 cycles: 134281308 heartbeat IPC: 3.07 cumulative IPC: 2.792 (Simulation time: 03 hr 26 min 08 sec)
Heartbeat CPU 0 instructions: 400000000 cycles: 137574742 heartbeat IPC: 3.036 cumulative IPC: 2.798 (Simulation time: 03 hr 31 min 26 sec)
Heartbeat CPU 0 instructions: 410000000 cycles: 144001438 heartbeat IPC: 1.556 cumulative IPC: 2.738 (Simulation time: 03 hr 38 min 47 sec)
Heartbeat CPU 0 instructions: 420000003 cycles: 152981867 heartbeat IPC: 1.114 cumulative IPC: 2.634 (Simulation time: 03 hr 47 min 57 sec)
Heartbeat CPU 0 instructions: 430000004 cycles: 158689562 heartbeat IPC: 1.752 cumulative IPC: 2.599 (Simulation time: 03 hr 55 min 09 sec)
Heartbeat CPU 0 instructions: 440000004 cycles: 163596208 heartbeat IPC: 2.038 cumulative IPC: 2.581 (Simulation time: 04 hr 01 min 44 sec)
Heartbeat CPU 0 instructions: 450000000 cycles: 168313541 heartbeat IPC: 2.12 cumulative IPC: 2.567 (Simulation time: 04 hr 08 min 09 sec)
Heartbeat CPU 0 instructions: 460000002 cycles: 176378504 heartbeat IPC: 1.24 cumulative IPC: 2.502 (Simulation time: 04 hr 16 min 53 sec)
Heartbeat CPU 0 instructions: 470000003 cycles: 183704154 heartbeat IPC: 1.365 cumulative IPC: 2.453 (Simulation time: 04 hr 24 min 59 sec)
Heartbeat CPU 0 instructions: 480000000 cycles: 187100681 heartbeat IPC: 2.944 cumulative IPC: 2.463 (Simulation time: 04 hr 30 min 18 sec)
Heartbeat CPU 0 instructions: 490000001 cycles: 190720324 heartbeat IPC: 2.763 cumulative IPC: 2.469 (Simulation time: 04 hr 35 min 49 sec)
Heartbeat CPU 0 instructions: 500000002 cycles: 194220450 heartbeat IPC: 2.857 cumulative IPC: 2.476 (Simulation time: 04 hr 41 min 13 sec)
Heartbeat CPU 0 instructions: 510000000 cycles: 197664061 heartbeat IPC: 2.904 cumulative IPC: 2.484 (Simulation time: 04 hr 46 min 36 sec)
Heartbeat CPU 0 instructions: 520000000 cycles: 201140510 heartbeat IPC: 2.876 cumulative IPC: 2.492 (Simulation time: 04 hr 52 min 00 sec)
Heartbeat CPU 0 instructions: 530000001 cycles: 210486592 heartbeat IPC: 1.07 cumulative IPC: 2.424 (Simulation time: 05 hr 01 min 21 sec)
Heartbeat CPU 0 instructions: 540000000 cycles: 219397709 heartbeat IPC: 1.122 cumulative IPC: 2.368 (Simulation time: 05 hr 10 min 34 sec)
Heartbeat CPU 0 instructions: 550000004 cycles: 229424727 heartbeat IPC: 0.9973 cumulative IPC: 2.305 (Simulation time: 05 hr 20 min 38 sec)
Heartbeat CPU 0 instructions: 560000004 cycles: 232991321 heartbeat IPC: 2.804 cumulative IPC: 2.313 (Simulation time: 05 hr 26 min 12 sec)
Heartbeat CPU 0 instructions: 570000002 cycles: 235811801 heartbeat IPC: 3.545 cumulative IPC: 2.329 (Simulation time: 05 hr 31 min 08 sec)
Heartbeat CPU 0 instructions: 580000000 cycles: 238736858 heartbeat IPC: 3.419 cumulative IPC: 2.343 (Simulation time: 05 hr 36 min 14 sec)
Heartbeat CPU 0 instructions: 590000001 cycles: 241662390 heartbeat IPC: 3.418 cumulative IPC: 2.356 (Simulation time: 05 hr 41 min 12 sec)
Heartbeat CPU 0 instructions: 600000003 cycles: 244355152 heartbeat IPC: 3.714 cumulative IPC: 2.372 (Simulation time: 05 hr 46 min 23 sec)
Heartbeat CPU 0 instructions: 610000001 cycles: 247219293 heartbeat IPC: 3.491 cumulative IPC: 2.386 (Simulation time: 05 hr 51 min 35 sec)
Heartbeat CPU 0 instructions: 620000004 cycles: 250171730 heartbeat IPC: 3.387 cumulative IPC: 2.398 (Simulation time: 05 hr 56 min 41 sec)
Heartbeat CPU 0 instructions: 630000002 cycles: 252982966 heartbeat IPC: 3.557 cumulative IPC: 2.412 (Simulation time: 06 hr 01 min 45 sec)
Heartbeat CPU 0 instructions: 640000004 cycles: 256030438 heartbeat IPC: 3.281 cumulative IPC: 2.423 (Simulation time: 06 hr 07 min 08 sec)
Heartbeat CPU 0 instructions: 650000001 cycles: 258740405 heartbeat IPC: 3.69 cumulative IPC: 2.437 (Simulation time: 06 hr 11 min 56 sec)
Simulation finished CPU 0 instructions: 600000001 cycles: 246240344 cumulative IPC: 2.437 (Simulation time: 06 hr 11 min 56 sec)
Simulation complete CPU 0 instructions: 600000001 cycles: 246240344 cumulative IPC: 2.437 (Simulation time: 06 hr 11 min 56 sec)

ChampSim completed all CPUs

=== Simulation ===
CPU 0 runs traces/400.perlbench-50B.champsimtrace.xz
Region of Interest Statistics

CPU 0 cumulative IPC: 2.437 instructions: 600000001 cycles: 246240344
CPU 0 Branch Prediction Accuracy: 99.01% MPKI: 2.04 Average ROB Occupancy at Mispredict: 94.1
Branch type MPKI
BRANCH_DIRECT_JUMP: 0.0176
BRANCH_INDIRECT: 0.38
BRANCH_CONDITIONAL: 1.19
BRANCH_DIRECT_CALL: 0.0067
BRANCH_INDIRECT_CALL: 0.431
BRANCH_RETURN: 0.0161

LLC TOTAL        ACCESS:     510726 HIT:     198670 MISS:     312056
LLC LOAD         ACCESS:     376040 HIT:      97039 MISS:     279001
LLC RFO          ACCESS:      32695 HIT:      12289 MISS:      20406
LLC PREFETCH     ACCESS:          0 HIT:          0 MISS:          0
LLC WRITE        ACCESS:      83663 HIT:      82774 MISS:        889
LLC TRANSLATION  ACCESS:      18328 HIT:       6568 MISS:      11760
LLC PREFETCH REQUESTED:          0 ISSUED:          0 USEFUL:          0 USELESS:          0
LLC AVERAGE MISS LATENCY: 608.3 cycles
cpu0_DTLB TOTAL        ACCESS:  133171520 HIT:  131821935 MISS:    1349585
cpu0_DTLB LOAD         ACCESS:  133171520 HIT:  131821935 MISS:    1349585
cpu0_DTLB RFO          ACCESS:          0 HIT:          0 MISS:          0
cpu0_DTLB PREFETCH     ACCESS:          0 HIT:          0 MISS:          0
cpu0_DTLB WRITE        ACCESS:          0 HIT:          0 MISS:          0
cpu0_DTLB TRANSLATION  ACCESS:          0 HIT:          0 MISS:          0
cpu0_DTLB PREFETCH REQUESTED:          0 ISSUED:          0 USEFUL:          0 USELESS:          0
cpu0_DTLB AVERAGE MISS LATENCY: 11.73 cycles
cpu0_ITLB TOTAL        ACCESS:    8999004 HIT:    8788646 MISS:     210358
cpu0_ITLB LOAD         ACCESS:    8999004 HIT:    8788646 MISS:     210358
cpu0_ITLB RFO          ACCESS:          0 HIT:          0 MISS:          0
cpu0_ITLB PREFETCH     ACCESS:          0 HIT:          0 MISS:          0
cpu0_ITLB WRITE        ACCESS:          0 HIT:          0 MISS:          0
cpu0_ITLB TRANSLATION  ACCESS:          0 HIT:          0 MISS:          0
cpu0_ITLB PREFETCH REQUESTED:          0 ISSUED:          0 USEFUL:          0 USELESS:          0
cpu0_ITLB AVERAGE MISS LATENCY: 3.027 cycles
cpu0_L1D TOTAL        ACCESS:  178240512 HIT:  175292906 MISS:    2947606
cpu0_L1D LOAD         ACCESS:   92723823 HIT:   90302555 MISS:    2421268
cpu0_L1D RFO          ACCESS:          0 HIT:          0 MISS:          0
cpu0_L1D PREFETCH     ACCESS:          0 HIT:          0 MISS:          0
cpu0_L1D WRITE        ACCESS:   85488160 HIT:   84988342 MISS:     499818
cpu0_L1D TRANSLATION  ACCESS:      28529 HIT:       2009 MISS:      26520
cpu0_L1D PREFETCH REQUESTED:          0 ISSUED:          0 USEFUL:          0 USELESS:          0
cpu0_L1D AVERAGE MISS LATENCY: 64.83 cycles
cpu0_L1I TOTAL        ACCESS:   10517971 HIT:    8617067 MISS:    1900904
cpu0_L1I LOAD         ACCESS:   10517971 HIT:    8617067 MISS:    1900904
cpu0_L1I RFO          ACCESS:          0 HIT:          0 MISS:          0
cpu0_L1I PREFETCH     ACCESS:          0 HIT:          0 MISS:          0
cpu0_L1I WRITE        ACCESS:          0 HIT:          0 MISS:          0
cpu0_L1I TRANSLATION  ACCESS:          0 HIT:          0 MISS:          0
cpu0_L1I PREFETCH REQUESTED:          0 ISSUED:          0 USEFUL:          0 USELESS:          0
cpu0_L1I AVERAGE MISS LATENCY: 10.63 cycles
cpu0_L2C TOTAL        ACCESS:    3236142 HIT:    2808171 MISS:     427971
cpu0_L2C LOAD         ACCESS:    2709170 HIT:    2333130 MISS:     376040
cpu0_L2C RFO          ACCESS:     135547 HIT:     102852 MISS:      32695
cpu0_L2C PREFETCH     ACCESS:          0 HIT:          0 MISS:          0
cpu0_L2C WRITE        ACCESS:     364983 HIT:     364075 MISS:        908
cpu0_L2C TRANSLATION  ACCESS:      26442 HIT:       8114 MISS:      18328
cpu0_L2C PREFETCH REQUESTED:          0 ISSUED:          0 USEFUL:          0 USELESS:          0
cpu0_L2C AVERAGE MISS LATENCY: 464.2 cycles
cpu0_STLB TOTAL        ACCESS:    1009761 HIT:     983070 MISS:      26691
cpu0_STLB LOAD         ACCESS:    1009761 HIT:     983070 MISS:      26691
cpu0_STLB RFO          ACCESS:          0 HIT:          0 MISS:          0
cpu0_STLB PREFETCH     ACCESS:          0 HIT:          0 MISS:          0
cpu0_STLB WRITE        ACCESS:          0 HIT:          0 MISS:          0
cpu0_STLB TRANSLATION  ACCESS:          0 HIT:          0 MISS:          0
cpu0_STLB PREFETCH REQUESTED:          0 ISSUED:          0 USEFUL:          0 USELESS:          0
cpu0_STLB AVERAGE MISS LATENCY: 392.3 cycles

DRAM Statistics

Channel 0 RQ ROW_BUFFER_HIT:      62012
  ROW_BUFFER_MISS:     249055
 AVG DBUS CONGESTED CYCLE: 3.836
WQ ROW_BUFFER_HIT: Channel 0 
  ROW_BUFFER_MISS:       5861
  FULL:      42596
