WARNING: physical memory size is smaller than virtual memory size.

*** ChampSim Multicore Out-of-Order Simulator ***
Warmup Instructions: 50000000
Simulation Instructions: 600000000
Number of CPUs: 1
Page size: 4096

Off-chip DRAM Size: 4 GiB Channels: 1 Width: 64-bit Data Race: 3200 MT/s
Heartbeat CPU 0 instructions: 10000001 cycles: 2500318 heartbeat IPC: 3.999 cumulative IPC: 3.999 (Simulation time: 00 hr 03 min 48 sec)
Heartbeat CPU 0 instructions: 20000002 cycles: 5037077 heartbeat IPC: 3.942 cumulative IPC: 3.971 (Simulation time: 00 hr 07 min 31 sec)
Heartbeat CPU 0 instructions: 30000002 cycles: 7537077 heartbeat IPC: 4 cumulative IPC: 3.98 (Simulation time: 00 hr 10 min 54 sec)
Heartbeat CPU 0 instructions: 40000002 cycles: 10037077 heartbeat IPC: 4 cumulative IPC: 3.985 (Simulation time: 00 hr 14 min 04 sec)
Heartbeat CPU 0 instructions: 50000002 cycles: 12537077 heartbeat IPC: 4 cumulative IPC: 3.988 (Simulation time: 00 hr 17 min 08 sec)
Warmup finished CPU 0 instructions: 50000002 cycles: 12537078 cumulative IPC: 3.988 (Simulation time: 00 hr 17 min 08 sec)
Warmup complete CPU 0 instructions: 50000002 cycles: 12537078 cumulative IPC: 3.988 (Simulation time: 00 hr 17 min 08 sec)
Heartbeat CPU 0 instructions: 60000000 cycles: 17723817 heartbeat IPC: 1.928 cumulative IPC: 1.928 (Simulation time: 00 hr 21 min 46 sec)
Heartbeat CPU 0 instructions: 70000002 cycles: 22632476 heartbeat IPC: 2.037 cumulative IPC: 1.981 (Simulation time: 00 hr 26 min 07 sec)
Heartbeat CPU 0 instructions: 80000001 cycles: 28014545 heartbeat IPC: 1.858 cumulative IPC: 1.938 (Simulation time: 00 hr 30 min 32 sec)
Heartbeat CPU 0 instructions: 90000001 cycles: 32910000 heartbeat IPC: 2.043 cumulative IPC: 1.963 (Simulation time: 00 hr 34 min 45 sec)
Heartbeat CPU 0 instructions: 100000000 cycles: 38034015 heartbeat IPC: 1.952 cumulative IPC: 1.961 (Simulation time: 00 hr 39 min 04 sec)
Heartbeat CPU 0 instructions: 110000000 cycles: 42938081 heartbeat IPC: 2.039 cumulative IPC: 1.974 (Simulation time: 00 hr 43 min 18 sec)
Heartbeat CPU 0 instructions: 120000001 cycles: 48145935 heartbeat IPC: 1.92 cumulative IPC: 1.966 (Simulation time: 00 hr 47 min 43 sec)
Heartbeat CPU 0 instructions: 130000001 cycles: 53317616 heartbeat IPC: 1.934 cumulative IPC: 1.962 (Simulation time: 00 hr 52 min 05 sec)
Heartbeat CPU 0 instructions: 140000001 cycles: 58649112 heartbeat IPC: 1.876 cumulative IPC: 1.952 (Simulation time: 00 hr 56 min 27 sec)
Heartbeat CPU 0 instructions: 150000001 cycles: 63979320 heartbeat IPC: 1.876 cumulative IPC: 1.944 (Simulation time: 01 hr 00 min 54 sec)
Heartbeat CPU 0 instructions: 160000004 cycles: 69203563 heartbeat IPC: 1.914 cumulative IPC: 1.941 (Simulation time: 01 hr 05 min 16 sec)
Heartbeat CPU 0 instructions: 170000000 cycles: 79870452 heartbeat IPC: 0.9375 cumulative IPC: 1.782 (Simulation time: 01 hr 12 min 30 sec)
Heartbeat CPU 0 instructions: 180000004 cycles: 90945604 heartbeat IPC: 0.9029 cumulative IPC: 1.658 (Simulation time: 01 hr 20 min 08 sec)
Heartbeat CPU 0 instructions: 190000001 cycles: 101901307 heartbeat IPC: 0.9128 cumulative IPC: 1.567 (Simulation time: 01 hr 27 min 38 sec)
Heartbeat CPU 0 instructions: 200000003 cycles: 106669352 heartbeat IPC: 2.097 cumulative IPC: 1.594 (Simulation time: 01 hr 31 min 48 sec)
Heartbeat CPU 0 instructions: 210000001 cycles: 111591634 heartbeat IPC: 2.032 cumulative IPC: 1.615 (Simulation time: 01 hr 36 min 00 sec)
Heartbeat CPU 0 instructions: 220000000 cycles: 116420596 heartbeat IPC: 2.071 cumulative IPC: 1.636 (Simulation time: 01 hr 40 min 13 sec)
Heartbeat CPU 0 instructions: 230000002 cycles: 121740396 heartbeat IPC: 1.88 cumulative IPC: 1.648 (Simulation time: 01 hr 44 min 37 sec)
Heartbeat CPU 0 instructions: 240000000 cycles: 126577863 heartbeat IPC: 2.067 cumulative IPC: 1.666 (Simulation time: 01 hr 48 min 55 sec)
Heartbeat CPU 0 instructions: 250000000 cycles: 131730630 heartbeat IPC: 1.941 cumulative IPC: 1.678 (Simulation time: 01 hr 53 min 15 sec)
Heartbeat CPU 0 instructions: 260000000 cycles: 136756674 heartbeat IPC: 1.99 cumulative IPC: 1.691 (Simulation time: 01 hr 57 min 33 sec)
Heartbeat CPU 0 instructions: 270000002 cycles: 141637066 heartbeat IPC: 2.049 cumulative IPC: 1.704 (Simulation time: 02 hr 01 min 49 sec)
Heartbeat CPU 0 instructions: 280000002 cycles: 146543755 heartbeat IPC: 2.038 cumulative IPC: 1.716 (Simulation time: 02 hr 06 min 07 sec)
Heartbeat CPU 0 instructions: 290000001 cycles: 151906440 heartbeat IPC: 1.865 cumulative IPC: 1.722 (Simulation time: 02 hr 10 min 36 sec)
Heartbeat CPU 0 instructions: 300000003 cycles: 156947948 heartbeat IPC: 1.984 cumulative IPC: 1.731 (Simulation time: 02 hr 14 min 57 sec)
Heartbeat CPU 0 instructions: 310000001 cycles: 162221485 heartbeat IPC: 1.896 cumulative IPC: 1.737 (Simulation time: 02 hr 19 min 25 sec)
Heartbeat CPU 0 instructions: 320000003 cycles: 167406082 heartbeat IPC: 1.929 cumulative IPC: 1.743 (Simulation time: 02 hr 23 min 52 sec)
Heartbeat CPU 0 instructions: 330000003 cycles: 172662285 heartbeat IPC: 1.903 cumulative IPC: 1.749 (Simulation time: 02 hr 28 min 20 sec)
Heartbeat CPU 0 instructions: 340000000 cycles: 182615226 heartbeat IPC: 1.005 cumulative IPC: 1.705 (Simulation time: 02 hr 35 min 23 sec)
Heartbeat CPU 0 instructions: 350000000 cycles: 194158486 heartbeat IPC: 0.8663 cumulative IPC: 1.652 (Simulation time: 02 hr 43 min 16 sec)
Heartbeat CPU 0 instructions: 360000004 cycles: 205074911 heartbeat IPC: 0.9161 cumulative IPC: 1.61 (Simulation time: 02 hr 50 min 46 sec)
Heartbeat CPU 0 instructions: 370000000 cycles: 209477759 heartbeat IPC: 2.271 cumulative IPC: 1.625 (Simulation time: 02 hr 54 min 49 sec)
Heartbeat CPU 0 instructions: 380000001 cycles: 214389468 heartbeat IPC: 2.036 cumulative IPC: 1.635 (Simulation time: 02 hr 59 min 06 sec)
Heartbeat CPU 0 instructions: 390000002 cycles: 219210366 heartbeat IPC: 2.074 cumulative IPC: 1.645 (Simulation time: 03 hr 03 min 20 sec)
Heartbeat CPU 0 instructions: 400000004 cycles: 224142938 heartbeat IPC: 2.027 cumulative IPC: 1.654 (Simulation time: 03 hr 07 min 38 sec)
Heartbeat CPU 0 instructions: 410000000 cycles: 228852337 heartbeat IPC: 2.123 cumulative IPC: 1.664 (Simulation time: 03 hr 11 min 49 sec)
Heartbeat CPU 0 instructions: 420000000 cycles: 234031770 heartbeat IPC: 1.931 cumulative IPC: 1.67 (Simulation time: 03 hr 16 min 12 sec)
Heartbeat CPU 0 instructions: 430000001 cycles: 238490703 heartbeat IPC: 2.243 cumulative IPC: 1.682 (Simulation time: 03 hr 20 min 25 sec)
Heartbeat CPU 0 instructions: 440000000 cycles: 243831451 heartbeat IPC: 1.872 cumulative IPC: 1.686 (Simulation time: 03 hr 24 min 53 sec)
Heartbeat CPU 0 instructions: 450000002 cycles: 248488296 heartbeat IPC: 2.147 cumulative IPC: 1.695 (Simulation time: 03 hr 29 min 04 sec)
Heartbeat CPU 0 instructions: 460000000 cycles: 253268529 heartbeat IPC: 2.092 cumulative IPC: 1.703 (Simulation time: 03 hr 33 min 17 sec)
Heartbeat CPU 0 instructions: 470000000 cycles: 258236663 heartbeat IPC: 2.013 cumulative IPC: 1.709 (Simulation time: 03 hr 37 min 34 sec)
Heartbeat CPU 0 instructions: 480000003 cycles: 263039590 heartbeat IPC: 2.082 cumulative IPC: 1.717 (Simulation time: 03 hr 41 min 47 sec)
Heartbeat CPU 0 instructions: 490000000 cycles: 267638219 heartbeat IPC: 2.175 cumulative IPC: 1.725 (Simulation time: 03 hr 45 min 53 sec)
Heartbeat CPU 0 instructions: 500000000 cycles: 272650906 heartbeat IPC: 1.995 cumulative IPC: 1.73 (Simulation time: 03 hr 50 min 12 sec)
Heartbeat CPU 0 instructions: 510000003 cycles: 278307616 heartbeat IPC: 1.768 cumulative IPC: 1.731 (Simulation time: 03 hr 54 min 54 sec)
Heartbeat CPU 0 instructions: 520000001 cycles: 282976044 heartbeat IPC: 2.142 cumulative IPC: 1.738 (Simulation time: 03 hr 59 min 03 sec)
Heartbeat CPU 0 instructions: 530000002 cycles: 288103977 heartbeat IPC: 1.95 cumulative IPC: 1.742 (Simulation time: 04 hr 03 min 27 sec)
Heartbeat CPU 0 instructions: 540000000 cycles: 293195529 heartbeat IPC: 1.964 cumulative IPC: 1.746 (Simulation time: 04 hr 07 min 42 sec)
Heartbeat CPU 0 instructions: 550000001 cycles: 297983509 heartbeat IPC: 2.089 cumulative IPC: 1.752 (Simulation time: 04 hr 11 min 31 sec)
Heartbeat CPU 0 instructions: 560000000 cycles: 303209230 heartbeat IPC: 1.914 cumulative IPC: 1.755 (Simulation time: 04 hr 15 min 24 sec)
Heartbeat CPU 0 instructions: 570000004 cycles: 309950122 heartbeat IPC: 1.483 cumulative IPC: 1.748 (Simulation time: 04 hr 20 min 01 sec)
Heartbeat CPU 0 instructions: 580000003 cycles: 321504973 heartbeat IPC: 0.8654 cumulative IPC: 1.715 (Simulation time: 04 hr 26 min 13 sec)
Heartbeat CPU 0 instructions: 590000002 cycles: 334987419 heartbeat IPC: 0.7417 cumulative IPC: 1.675 (Simulation time: 04 hr 31 min 54 sec)
Heartbeat CPU 0 instructions: 600000000 cycles: 339565200 heartbeat IPC: 2.184 cumulative IPC: 1.682 (Simulation time: 04 hr 34 min 09 sec)
Heartbeat CPU 0 instructions: 610000002 cycles: 344047355 heartbeat IPC: 2.231 cumulative IPC: 1.689 (Simulation time: 04 hr 36 min 00 sec)
Heartbeat CPU 0 instructions: 620000000 cycles: 348842215 heartbeat IPC: 2.086 cumulative IPC: 1.695 (Simulation time: 04 hr 37 min 33 sec)
Heartbeat CPU 0 instructions: 630000002 cycles: 353922690 heartbeat IPC: 1.968 cumulative IPC: 1.699 (Simulation time: 04 hr 38 min 58 sec)
Heartbeat CPU 0 instructions: 640000001 cycles: 358768775 heartbeat IPC: 2.064 cumulative IPC: 1.704 (Simulation time: 04 hr 39 min 48 sec)
Heartbeat CPU 0 instructions: 650000000 cycles: 363318999 heartbeat IPC: 2.198 cumulative IPC: 1.71 (Simulation time: 04 hr 40 min 46 sec)
Simulation finished CPU 0 instructions: 600000001 cycles: 350781923 cumulative IPC: 1.71 (Simulation time: 04 hr 40 min 46 sec)
Simulation complete CPU 0 instructions: 600000001 cycles: 350781923 cumulative IPC: 1.71 (Simulation time: 04 hr 40 min 46 sec)

ChampSim completed all CPUs

=== Simulation ===
CPU 0 runs traces/400.perlbench-41B.champsimtrace.xz
Region of Interest Statistics

CPU 0 cumulative IPC: 1.71 instructions: 600000001 cycles: 350781923
CPU 0 Branch Prediction Accuracy: 93.95% MPKI: 12.5 Average ROB Occupancy at Mispredict: 29.56
Branch type MPKI
BRANCH_DIRECT_JUMP: 0.0123
BRANCH_INDIRECT: 0.323
BRANCH_CONDITIONAL: 12
BRANCH_DIRECT_CALL: 0.0043
BRANCH_INDIRECT_CALL: 0.2
BRANCH_RETURN: 0.00828

LLC TOTAL        ACCESS:     414978 HIT:     142844 MISS:     272134
LLC LOAD         ACCESS:     309560 HIT:      77791 MISS:     231769
LLC RFO          ACCESS:      25089 HIT:       9682 MISS:      15407
LLC PREFETCH     ACCESS:          0 HIT:          0 MISS:          0
LLC WRITE        ACCESS:      64552 HIT:      49124 MISS:      15428
LLC TRANSLATION  ACCESS:      15777 HIT:       6247 MISS:       9530
LLC PREFETCH REQUESTED:          0 ISSUED:          0 USEFUL:          0 USELESS:          0
LLC AVERAGE MISS LATENCY: 522.5 cycles
cpu0_DTLB TOTAL        ACCESS:  153666344 HIT:  152988961 MISS:     677383
cpu0_DTLB LOAD         ACCESS:  153666344 HIT:  152988961 MISS:     677383
cpu0_DTLB RFO          ACCESS:          0 HIT:          0 MISS:          0
cpu0_DTLB PREFETCH     ACCESS:          0 HIT:          0 MISS:          0
cpu0_DTLB WRITE        ACCESS:          0 HIT:          0 MISS:          0
cpu0_DTLB TRANSLATION  ACCESS:          0 HIT:          0 MISS:          0
cpu0_DTLB PREFETCH REQUESTED:          0 ISSUED:          0 USEFUL:          0 USELESS:          0
cpu0_DTLB AVERAGE MISS LATENCY: 15.08 cycles
cpu0_ITLB TOTAL        ACCESS:    4834975 HIT:    4776934 MISS:      58041
cpu0_ITLB LOAD         ACCESS:    4834975 HIT:    4776934 MISS:      58041
cpu0_ITLB RFO          ACCESS:          0 HIT:          0 MISS:          0
cpu0_ITLB PREFETCH     ACCESS:          0 HIT:          0 MISS:          0
cpu0_ITLB WRITE        ACCESS:          0 HIT:          0 MISS:          0
cpu0_ITLB TRANSLATION  ACCESS:          0 HIT:          0 MISS:          0
cpu0_ITLB PREFETCH REQUESTED:          0 ISSUED:          0 USEFUL:          0 USELESS:          0
cpu0_ITLB AVERAGE MISS LATENCY: 7.097 cycles
cpu0_L1D TOTAL        ACCESS:  200289031 HIT:  198945186 MISS:    1343845
cpu0_L1D LOAD         ACCESS:  117045225 HIT:  116012439 MISS:    1032786
cpu0_L1D RFO          ACCESS:          0 HIT:          0 MISS:          0
cpu0_L1D PREFETCH     ACCESS:          0 HIT:          0 MISS:          0
cpu0_L1D WRITE        ACCESS:   83219341 HIT:   82931170 MISS:     288171
cpu0_L1D TRANSLATION  ACCESS:      24465 HIT:       1577 MISS:      22888
cpu0_L1D PREFETCH REQUESTED:          0 ISSUED:          0 USEFUL:          0 USELESS:          0
cpu0_L1D AVERAGE MISS LATENCY: 109.7 cycles
cpu0_L1I TOTAL        ACCESS:    5577481 HIT:    4815384 MISS:     762097
cpu0_L1I LOAD         ACCESS:    5577481 HIT:    4815384 MISS:     762097
cpu0_L1I RFO          ACCESS:          0 HIT:          0 MISS:          0
cpu0_L1I PREFETCH     ACCESS:          0 HIT:          0 MISS:          0
cpu0_L1I WRITE        ACCESS:          0 HIT:          0 MISS:          0
cpu0_L1I TRANSLATION  ACCESS:          0 HIT:          0 MISS:          0
cpu0_L1I PREFETCH REQUESTED:          0 ISSUED:          0 USEFUL:          0 USELESS:          0
cpu0_L1I AVERAGE MISS LATENCY: 12.54 cycles
cpu0_L2C TOTAL        ACCESS:    1382515 HIT:    1031224 MISS:     351291
cpu0_L2C LOAD         ACCESS:    1125673 HIT:     816113 MISS:     309560
cpu0_L2C RFO          ACCESS:      63908 HIT:      38819 MISS:      25089
cpu0_L2C PREFETCH     ACCESS:          0 HIT:          0 MISS:          0
cpu0_L2C WRITE        ACCESS:     170126 HIT:     169261 MISS:        865
cpu0_L2C TRANSLATION  ACCESS:      22808 HIT:       7031 MISS:      15777
cpu0_L2C PREFETCH REQUESTED:          0 ISSUED:          0 USEFUL:          0 USELESS:          0
cpu0_L2C AVERAGE MISS LATENCY: 425.4 cycles
cpu0_STLB TOTAL        ACCESS:     505169 HIT:     482378 MISS:      22791
cpu0_STLB LOAD         ACCESS:     505169 HIT:     482378 MISS:      22791
cpu0_STLB RFO          ACCESS:          0 HIT:          0 MISS:          0
cpu0_STLB PREFETCH     ACCESS:          0 HIT:          0 MISS:          0
cpu0_STLB WRITE        ACCESS:          0 HIT:          0 MISS:          0
cpu0_STLB TRANSLATION  ACCESS:          0 HIT:          0 MISS:          0
cpu0_STLB PREFETCH REQUESTED:          0 ISSUED:          0 USEFUL:          0 USELESS:          0
cpu0_STLB AVERAGE MISS LATENCY: 325.6 cycles

DRAM Statistics

Channel 0 RQ ROW_BUFFER_HIT:      42671
  ROW_BUFFER_MISS:     213989
 AVG DBUS CONGESTED CYCLE: 3.795
WQ ROW_BUFFER_HIT: Channel 0 
  ROW_BUFFER_MISS:       8077
  FULL:      30517
