WARNING: physical memory size is smaller than virtual memory size.

*** ChampSim Multicore Out-of-Order Simulator ***
Warmup Instructions: 50000000
Simulation Instructions: 600000000
Number of CPUs: 1
Page size: 4096

Off-chip DRAM Size: 4 GiB Channels: 1 Width: 64-bit Data Race: 3200 MT/s
Heartbeat CPU 0 instructions: 10000001 cycles: 2500319 heartbeat IPC: 3.999 cumulative IPC: 3.999 (Simulation time: 00 hr 03 min 47 sec)
Heartbeat CPU 0 instructions: 20000002 cycles: 5037086 heartbeat IPC: 3.942 cumulative IPC: 3.971 (Simulation time: 00 hr 07 min 36 sec)
Heartbeat CPU 0 instructions: 30000002 cycles: 7537086 heartbeat IPC: 4 cumulative IPC: 3.98 (Simulation time: 00 hr 11 min 02 sec)
Heartbeat CPU 0 instructions: 40000002 cycles: 10037086 heartbeat IPC: 4 cumulative IPC: 3.985 (Simulation time: 00 hr 14 min 34 sec)
Heartbeat CPU 0 instructions: 50000002 cycles: 12537086 heartbeat IPC: 4 cumulative IPC: 3.988 (Simulation time: 00 hr 18 min 04 sec)
Warmup finished CPU 0 instructions: 50000002 cycles: 12537087 cumulative IPC: 3.988 (Simulation time: 00 hr 18 min 04 sec)
Warmup complete CPU 0 instructions: 50000002 cycles: 12537087 cumulative IPC: 3.988 (Simulation time: 00 hr 18 min 04 sec)
Heartbeat CPU 0 instructions: 60000000 cycles: 17801449 heartbeat IPC: 1.9 cumulative IPC: 1.9 (Simulation time: 00 hr 23 min 32 sec)
Heartbeat CPU 0 instructions: 70000002 cycles: 22748403 heartbeat IPC: 2.021 cumulative IPC: 1.959 (Simulation time: 00 hr 28 min 53 sec)
Heartbeat CPU 0 instructions: 80000001 cycles: 28179410 heartbeat IPC: 1.841 cumulative IPC: 1.918 (Simulation time: 00 hr 34 min 25 sec)
Heartbeat CPU 0 instructions: 90000001 cycles: 33086786 heartbeat IPC: 2.038 cumulative IPC: 1.947 (Simulation time: 00 hr 39 min 35 sec)
Heartbeat CPU 0 instructions: 100000000 cycles: 38251536 heartbeat IPC: 1.936 cumulative IPC: 1.944 (Simulation time: 00 hr 45 min 06 sec)
Heartbeat CPU 0 instructions: 110000000 cycles: 43162964 heartbeat IPC: 2.036 cumulative IPC: 1.959 (Simulation time: 00 hr 50 min 26 sec)
Heartbeat CPU 0 instructions: 120000001 cycles: 48390562 heartbeat IPC: 1.913 cumulative IPC: 1.952 (Simulation time: 00 hr 55 min 50 sec)
Heartbeat CPU 0 instructions: 130000001 cycles: 53587646 heartbeat IPC: 1.924 cumulative IPC: 1.949 (Simulation time: 01 hr 01 min 16 sec)
Heartbeat CPU 0 instructions: 140000001 cycles: 58938876 heartbeat IPC: 1.869 cumulative IPC: 1.94 (Simulation time: 01 hr 06 min 50 sec)
Heartbeat CPU 0 instructions: 150000001 cycles: 64297731 heartbeat IPC: 1.866 cumulative IPC: 1.932 (Simulation time: 01 hr 12 min 20 sec)
Heartbeat CPU 0 instructions: 160000004 cycles: 69533254 heartbeat IPC: 1.91 cumulative IPC: 1.93 (Simulation time: 01 hr 17 min 47 sec)
Heartbeat CPU 0 instructions: 170000000 cycles: 78016134 heartbeat IPC: 1.179 cumulative IPC: 1.833 (Simulation time: 01 hr 25 min 32 sec)
Heartbeat CPU 0 instructions: 180000004 cycles: 88074205 heartbeat IPC: 0.9942 cumulative IPC: 1.721 (Simulation time: 01 hr 34 min 32 sec)
Heartbeat CPU 0 instructions: 190000001 cycles: 99537417 heartbeat IPC: 0.8724 cumulative IPC: 1.609 (Simulation time: 01 hr 44 min 13 sec)
Heartbeat CPU 0 instructions: 200000003 cycles: 104372074 heartbeat IPC: 2.068 cumulative IPC: 1.633 (Simulation time: 01 hr 49 min 27 sec)
Heartbeat CPU 0 instructions: 210000001 cycles: 109314841 heartbeat IPC: 2.023 cumulative IPC: 1.653 (Simulation time: 01 hr 54 min 43 sec)
Heartbeat CPU 0 instructions: 220000000 cycles: 114165755 heartbeat IPC: 2.061 cumulative IPC: 1.673 (Simulation time: 01 hr 59 min 55 sec)
Heartbeat CPU 0 instructions: 230000002 cycles: 119584500 heartbeat IPC: 1.845 cumulative IPC: 1.681 (Simulation time: 02 hr 05 min 27 sec)
Heartbeat CPU 0 instructions: 240000000 cycles: 124474965 heartbeat IPC: 2.045 cumulative IPC: 1.697 (Simulation time: 02 hr 10 min 43 sec)
Heartbeat CPU 0 instructions: 250000000 cycles: 129682045 heartbeat IPC: 1.92 cumulative IPC: 1.707 (Simulation time: 02 hr 16 min 11 sec)
Heartbeat CPU 0 instructions: 260000000 cycles: 134758357 heartbeat IPC: 1.97 cumulative IPC: 1.718 (Simulation time: 02 hr 21 min 31 sec)
Heartbeat CPU 0 instructions: 270000002 cycles: 139691765 heartbeat IPC: 2.027 cumulative IPC: 1.73 (Simulation time: 02 hr 26 min 46 sec)
Heartbeat CPU 0 instructions: 280000002 cycles: 144627316 heartbeat IPC: 2.026 cumulative IPC: 1.741 (Simulation time: 02 hr 32 min 03 sec)
Heartbeat CPU 0 instructions: 290000001 cycles: 150030344 heartbeat IPC: 1.851 cumulative IPC: 1.746 (Simulation time: 02 hr 37 min 38 sec)
Heartbeat CPU 0 instructions: 300000003 cycles: 155153278 heartbeat IPC: 1.952 cumulative IPC: 1.753 (Simulation time: 02 hr 43 min 04 sec)
Heartbeat CPU 0 instructions: 310000001 cycles: 160490313 heartbeat IPC: 1.874 cumulative IPC: 1.757 (Simulation time: 02 hr 48 min 34 sec)
Heartbeat CPU 0 instructions: 320000003 cycles: 165729361 heartbeat IPC: 1.909 cumulative IPC: 1.762 (Simulation time: 02 hr 54 min 16 sec)
Heartbeat CPU 0 instructions: 330000003 cycles: 171052858 heartbeat IPC: 1.878 cumulative IPC: 1.766 (Simulation time: 02 hr 59 min 44 sec)
Heartbeat CPU 0 instructions: 340000000 cycles: 179619859 heartbeat IPC: 1.167 cumulative IPC: 1.736 (Simulation time: 03 hr 07 min 36 sec)
Heartbeat CPU 0 instructions: 350000000 cycles: 190346761 heartbeat IPC: 0.9322 cumulative IPC: 1.687 (Simulation time: 03 hr 16 min 58 sec)
Heartbeat CPU 0 instructions: 360000004 cycles: 201652607 heartbeat IPC: 0.8845 cumulative IPC: 1.639 (Simulation time: 03 hr 26 min 38 sec)
Heartbeat CPU 0 instructions: 370000000 cycles: 206093084 heartbeat IPC: 2.252 cumulative IPC: 1.653 (Simulation time: 03 hr 31 min 42 sec)
Heartbeat CPU 0 instructions: 380000001 cycles: 211053610 heartbeat IPC: 2.016 cumulative IPC: 1.662 (Simulation time: 03 hr 37 min 04 sec)
Heartbeat CPU 0 instructions: 390000002 cycles: 215892499 heartbeat IPC: 2.067 cumulative IPC: 1.672 (Simulation time: 03 hr 42 min 18 sec)
Heartbeat CPU 0 instructions: 400000004 cycles: 220834862 heartbeat IPC: 2.023 cumulative IPC: 1.68 (Simulation time: 03 hr 47 min 32 sec)
Heartbeat CPU 0 instructions: 410000000 cycles: 225605321 heartbeat IPC: 2.096 cumulative IPC: 1.69 (Simulation time: 03 hr 52 min 43 sec)
Heartbeat CPU 0 instructions: 420000000 cycles: 230880502 heartbeat IPC: 1.896 cumulative IPC: 1.695 (Simulation time: 03 hr 58 min 13 sec)
Heartbeat CPU 0 instructions: 430000001 cycles: 235382605 heartbeat IPC: 2.221 cumulative IPC: 1.705 (Simulation time: 04 hr 03 min 17 sec)
Heartbeat CPU 0 instructions: 440000000 cycles: 240777019 heartbeat IPC: 1.854 cumulative IPC: 1.709 (Simulation time: 04 hr 08 min 49 sec)
Heartbeat CPU 0 instructions: 450000002 cycles: 245473012 heartbeat IPC: 2.129 cumulative IPC: 1.717 (Simulation time: 04 hr 13 min 58 sec)
Heartbeat CPU 0 instructions: 460000000 cycles: 250296438 heartbeat IPC: 2.073 cumulative IPC: 1.724 (Simulation time: 04 hr 19 min 10 sec)
Heartbeat CPU 0 instructions: 470000000 cycles: 255302514 heartbeat IPC: 1.998 cumulative IPC: 1.73 (Simulation time: 04 hr 24 min 28 sec)
Heartbeat CPU 0 instructions: 480000003 cycles: 260148300 heartbeat IPC: 2.064 cumulative IPC: 1.737 (Simulation time: 04 hr 29 min 41 sec)
Heartbeat CPU 0 instructions: 490000000 cycles: 264770783 heartbeat IPC: 2.163 cumulative IPC: 1.744 (Simulation time: 04 hr 34 min 44 sec)
Heartbeat CPU 0 instructions: 500000000 cycles: 269814352 heartbeat IPC: 1.983 cumulative IPC: 1.749 (Simulation time: 04 hr 40 min 07 sec)
Heartbeat CPU 0 instructions: 510000003 cycles: 275558351 heartbeat IPC: 1.741 cumulative IPC: 1.749 (Simulation time: 04 hr 45 min 56 sec)
Heartbeat CPU 0 instructions: 520000001 cycles: 280275422 heartbeat IPC: 2.12 cumulative IPC: 1.755 (Simulation time: 04 hr 51 min 07 sec)
Heartbeat CPU 0 instructions: 530000002 cycles: 285442300 heartbeat IPC: 1.935 cumulative IPC: 1.759 (Simulation time: 04 hr 56 min 47 sec)
Heartbeat CPU 0 instructions: 540000000 cycles: 290575628 heartbeat IPC: 1.948 cumulative IPC: 1.762 (Simulation time: 05 hr 02 min 12 sec)
Heartbeat CPU 0 instructions: 550000001 cycles: 295397174 heartbeat IPC: 2.074 cumulative IPC: 1.768 (Simulation time: 05 hr 07 min 24 sec)
Heartbeat CPU 0 instructions: 560000000 cycles: 300704063 heartbeat IPC: 1.884 cumulative IPC: 1.77 (Simulation time: 05 hr 12 min 56 sec)
Heartbeat CPU 0 instructions: 570000004 cycles: 307709735 heartbeat IPC: 1.427 cumulative IPC: 1.762 (Simulation time: 05 hr 19 min 44 sec)
Heartbeat CPU 0 instructions: 580000003 cycles: 316563440 heartbeat IPC: 1.129 cumulative IPC: 1.743 (Simulation time: 05 hr 27 min 58 sec)
Heartbeat CPU 0 instructions: 590000002 cycles: 331060302 heartbeat IPC: 0.6898 cumulative IPC: 1.695 (Simulation time: 05 hr 39 min 41 sec)
Heartbeat CPU 0 instructions: 600000000 cycles: 335693758 heartbeat IPC: 2.158 cumulative IPC: 1.702 (Simulation time: 05 hr 44 min 46 sec)
Heartbeat CPU 0 instructions: 610000002 cycles: 340223185 heartbeat IPC: 2.208 cumulative IPC: 1.709 (Simulation time: 05 hr 49 min 48 sec)
Heartbeat CPU 0 instructions: 620000000 cycles: 345045856 heartbeat IPC: 2.074 cumulative IPC: 1.714 (Simulation time: 05 hr 55 min 02 sec)
Heartbeat CPU 0 instructions: 630000002 cycles: 350152222 heartbeat IPC: 1.958 cumulative IPC: 1.718 (Simulation time: 06 hr 00 min 24 sec)
Heartbeat CPU 0 instructions: 640000001 cycles: 355005462 heartbeat IPC: 2.06 cumulative IPC: 1.723 (Simulation time: 06 hr 05 min 40 sec)
Heartbeat CPU 0 instructions: 650000000 cycles: 359566133 heartbeat IPC: 2.193 cumulative IPC: 1.729 (Simulation time: 06 hr 10 min 41 sec)
Simulation finished CPU 0 instructions: 600000001 cycles: 347029048 cumulative IPC: 1.729 (Simulation time: 06 hr 10 min 41 sec)
Simulation complete CPU 0 instructions: 600000001 cycles: 347029048 cumulative IPC: 1.729 (Simulation time: 06 hr 10 min 41 sec)

ChampSim completed all CPUs

=== Simulation ===
CPU 0 runs traces/400.perlbench-41B.champsimtrace.xz
Region of Interest Statistics

CPU 0 cumulative IPC: 1.729 instructions: 600000001 cycles: 347029048
CPU 0 Branch Prediction Accuracy: 93.95% MPKI: 12.5 Average ROB Occupancy at Mispredict: 29.53
Branch type MPKI
BRANCH_DIRECT_JUMP: 0.0123
BRANCH_INDIRECT: 0.323
BRANCH_CONDITIONAL: 12
BRANCH_DIRECT_CALL: 0.0043
BRANCH_INDIRECT_CALL: 0.2
BRANCH_RETURN: 0.00828

LLC TOTAL        ACCESS:     676072 HIT:     249087 MISS:     426985
LLC LOAD         ACCESS:     308530 HIT:     149056 MISS:     159474
LLC RFO          ACCESS:      25147 HIT:       8722 MISS:      16425
LLC PREFETCH     ACCESS:     262424 HIT:      66083 MISS:     196341
LLC WRITE        ACCESS:      64333 HIT:      23627 MISS:      40706
LLC TRANSLATION  ACCESS:      15638 HIT:       1599 MISS:      14039
LLC PREFETCH REQUESTED:     262424 ISSUED:     262424 USEFUL:      61854 USELESS:     120376
LLC AVERAGE MISS LATENCY: 667.6 cycles
cpu0_DTLB TOTAL        ACCESS:  153652090 HIT:  152975252 MISS:     676838
cpu0_DTLB LOAD         ACCESS:  153652090 HIT:  152975252 MISS:     676838
cpu0_DTLB RFO          ACCESS:          0 HIT:          0 MISS:          0
cpu0_DTLB PREFETCH     ACCESS:          0 HIT:          0 MISS:          0
cpu0_DTLB WRITE        ACCESS:          0 HIT:          0 MISS:          0
cpu0_DTLB TRANSLATION  ACCESS:          0 HIT:          0 MISS:          0
cpu0_DTLB PREFETCH REQUESTED:          0 ISSUED:          0 USEFUL:          0 USELESS:          0
cpu0_DTLB AVERAGE MISS LATENCY: 20.9 cycles
cpu0_ITLB TOTAL        ACCESS:    4835028 HIT:    4776968 MISS:      58060
cpu0_ITLB LOAD         ACCESS:    4835028 HIT:    4776968 MISS:      58060
cpu0_ITLB RFO          ACCESS:          0 HIT:          0 MISS:          0
cpu0_ITLB PREFETCH     ACCESS:          0 HIT:          0 MISS:          0
cpu0_ITLB WRITE        ACCESS:          0 HIT:          0 MISS:          0
cpu0_ITLB TRANSLATION  ACCESS:          0 HIT:          0 MISS:          0
cpu0_ITLB PREFETCH REQUESTED:          0 ISSUED:          0 USEFUL:          0 USELESS:          0
cpu0_ITLB AVERAGE MISS LATENCY: 7.613 cycles
cpu0_L1D TOTAL        ACCESS:  200285719 HIT:  198961822 MISS:    1323897
cpu0_L1D LOAD         ACCESS:  117042029 HIT:  116023647 MISS:    1018382
cpu0_L1D RFO          ACCESS:          0 HIT:          0 MISS:          0
cpu0_L1D PREFETCH     ACCESS:          0 HIT:          0 MISS:          0
cpu0_L1D WRITE        ACCESS:   83219223 HIT:   82936600 MISS:     282623
cpu0_L1D TRANSLATION  ACCESS:      24467 HIT:       1575 MISS:      22892
cpu0_L1D PREFETCH REQUESTED:          0 ISSUED:          0 USEFUL:          0 USELESS:          0
cpu0_L1D AVERAGE MISS LATENCY: 101.1 cycles
cpu0_L1I TOTAL        ACCESS:    5577318 HIT:    4815190 MISS:     762128
cpu0_L1I LOAD         ACCESS:    5577318 HIT:    4815190 MISS:     762128
cpu0_L1I RFO          ACCESS:          0 HIT:          0 MISS:          0
cpu0_L1I PREFETCH     ACCESS:          0 HIT:          0 MISS:          0
cpu0_L1I WRITE        ACCESS:          0 HIT:          0 MISS:          0
cpu0_L1I TRANSLATION  ACCESS:          0 HIT:          0 MISS:          0
cpu0_L1I PREFETCH REQUESTED:          0 ISSUED:          0 USEFUL:          0 USELESS:          0
cpu0_L1I AVERAGE MISS LATENCY: 13.38 cycles
cpu0_L2C TOTAL        ACCESS:    1382479 HIT:    1032298 MISS:     350181
cpu0_L2C LOAD         ACCESS:    1125690 HIT:     817160 MISS:     308530
cpu0_L2C RFO          ACCESS:      63888 HIT:      38741 MISS:      25147
cpu0_L2C PREFETCH     ACCESS:          0 HIT:          0 MISS:          0
cpu0_L2C WRITE        ACCESS:     170094 HIT:     169228 MISS:        866
cpu0_L2C TRANSLATION  ACCESS:      22807 HIT:       7169 MISS:      15638
cpu0_L2C PREFETCH REQUESTED:          0 ISSUED:          0 USEFUL:          0 USELESS:          0
cpu0_L2C AVERAGE MISS LATENCY: 387.5 cycles
cpu0_STLB TOTAL        ACCESS:     505123 HIT:     482333 MISS:      22790
cpu0_STLB LOAD         ACCESS:     505123 HIT:     482333 MISS:      22790
cpu0_STLB RFO          ACCESS:          0 HIT:          0 MISS:          0
cpu0_STLB PREFETCH     ACCESS:          0 HIT:          0 MISS:          0
cpu0_STLB WRITE        ACCESS:          0 HIT:          0 MISS:          0
cpu0_STLB TRANSLATION  ACCESS:          0 HIT:          0 MISS:          0
cpu0_STLB PREFETCH REQUESTED:          0 ISSUED:          0 USEFUL:          0 USELESS:          0
cpu0_STLB AVERAGE MISS LATENCY: 504.5 cycles

DRAM Statistics

Channel 0 RQ ROW_BUFFER_HIT:     118337
  ROW_BUFFER_MISS:     257585
 AVG DBUS CONGESTED CYCLE: 3.902
WQ ROW_BUFFER_HIT: Channel 0 
  ROW_BUFFER_MISS:       5712
  FULL:      36256
