WARNING: physical memory size is smaller than virtual memory size.

*** ChampSim Multicore Out-of-Order Simulator ***
Warmup Instructions: 50000000
Simulation Instructions: 600000000
Number of CPUs: 1
Page size: 4096

Off-chip DRAM Size: 4 GiB Channels: 1 Width: 64-bit Data Race: 3200 MT/s
Heartbeat CPU 0 instructions: 10000001 cycles: 2500319 heartbeat IPC: 3.999 cumulative IPC: 3.999 (Simulation time: 00 hr 01 min 03 sec)
Heartbeat CPU 0 instructions: 20000002 cycles: 5037092 heartbeat IPC: 3.942 cumulative IPC: 3.971 (Simulation time: 00 hr 02 min 51 sec)
Heartbeat CPU 0 instructions: 30000002 cycles: 7537092 heartbeat IPC: 4 cumulative IPC: 3.98 (Simulation time: 00 hr 05 min 16 sec)
Heartbeat CPU 0 instructions: 40000002 cycles: 10037092 heartbeat IPC: 4 cumulative IPC: 3.985 (Simulation time: 00 hr 08 min 38 sec)
Heartbeat CPU 0 instructions: 50000002 cycles: 12537092 heartbeat IPC: 4 cumulative IPC: 3.988 (Simulation time: 00 hr 12 min 05 sec)
Warmup finished CPU 0 instructions: 50000002 cycles: 12537093 cumulative IPC: 3.988 (Simulation time: 00 hr 12 min 05 sec)
Warmup complete CPU 0 instructions: 50000002 cycles: 12537093 cumulative IPC: 3.988 (Simulation time: 00 hr 12 min 05 sec)
Heartbeat CPU 0 instructions: 60000000 cycles: 17210121 heartbeat IPC: 2.14 cumulative IPC: 2.14 (Simulation time: 00 hr 17 min 12 sec)
Heartbeat CPU 0 instructions: 70000004 cycles: 21538616 heartbeat IPC: 2.31 cumulative IPC: 2.222 (Simulation time: 00 hr 22 min 08 sec)
Heartbeat CPU 0 instructions: 80000001 cycles: 26175357 heartbeat IPC: 2.157 cumulative IPC: 2.2 (Simulation time: 00 hr 27 min 14 sec)
Heartbeat CPU 0 instructions: 90000001 cycles: 30326809 heartbeat IPC: 2.409 cumulative IPC: 2.248 (Simulation time: 00 hr 32 min 04 sec)
Heartbeat CPU 0 instructions: 100000000 cycles: 34408347 heartbeat IPC: 2.45 cumulative IPC: 2.286 (Simulation time: 00 hr 36 min 51 sec)
Heartbeat CPU 0 instructions: 110000000 cycles: 38652641 heartbeat IPC: 2.356 cumulative IPC: 2.297 (Simulation time: 00 hr 41 min 42 sec)
Heartbeat CPU 0 instructions: 120000001 cycles: 42685719 heartbeat IPC: 2.479 cumulative IPC: 2.322 (Simulation time: 00 hr 46 min 29 sec)
Heartbeat CPU 0 instructions: 130000001 cycles: 46440567 heartbeat IPC: 2.663 cumulative IPC: 2.36 (Simulation time: 00 hr 51 min 09 sec)
Heartbeat CPU 0 instructions: 140000001 cycles: 50624779 heartbeat IPC: 2.39 cumulative IPC: 2.363 (Simulation time: 00 hr 56 min 07 sec)
Heartbeat CPU 0 instructions: 150000001 cycles: 54838748 heartbeat IPC: 2.373 cumulative IPC: 2.364 (Simulation time: 01 hr 00 min 58 sec)
Heartbeat CPU 0 instructions: 160000004 cycles: 59266969 heartbeat IPC: 2.258 cumulative IPC: 2.354 (Simulation time: 01 hr 05 min 59 sec)
Heartbeat CPU 0 instructions: 170000004 cycles: 69348782 heartbeat IPC: 0.9919 cumulative IPC: 2.112 (Simulation time: 01 hr 14 min 46 sec)
Heartbeat CPU 0 instructions: 180000004 cycles: 80369056 heartbeat IPC: 0.9074 cumulative IPC: 1.917 (Simulation time: 01 hr 24 min 20 sec)
Heartbeat CPU 0 instructions: 190000001 cycles: 90874525 heartbeat IPC: 0.9519 cumulative IPC: 1.787 (Simulation time: 01 hr 33 min 32 sec)
Heartbeat CPU 0 instructions: 200000004 cycles: 94693225 heartbeat IPC: 2.619 cumulative IPC: 1.826 (Simulation time: 01 hr 38 min 14 sec)
Heartbeat CPU 0 instructions: 210000001 cycles: 98634285 heartbeat IPC: 2.537 cumulative IPC: 1.858 (Simulation time: 01 hr 43 min 01 sec)
Heartbeat CPU 0 instructions: 220000000 cycles: 102609873 heartbeat IPC: 2.515 cumulative IPC: 1.887 (Simulation time: 01 hr 47 min 44 sec)
Heartbeat CPU 0 instructions: 230000002 cycles: 107363768 heartbeat IPC: 2.104 cumulative IPC: 1.898 (Simulation time: 01 hr 52 min 55 sec)
Heartbeat CPU 0 instructions: 240000000 cycles: 111610308 heartbeat IPC: 2.355 cumulative IPC: 1.918 (Simulation time: 01 hr 57 min 50 sec)
Heartbeat CPU 0 instructions: 250000000 cycles: 115971008 heartbeat IPC: 2.293 cumulative IPC: 1.934 (Simulation time: 02 hr 02 min 46 sec)
Heartbeat CPU 0 instructions: 260000000 cycles: 120192322 heartbeat IPC: 2.369 cumulative IPC: 1.951 (Simulation time: 02 hr 07 min 36 sec)
Heartbeat CPU 0 instructions: 270000002 cycles: 124073035 heartbeat IPC: 2.577 cumulative IPC: 1.972 (Simulation time: 02 hr 12 min 19 sec)
Heartbeat CPU 0 instructions: 280000002 cycles: 128266625 heartbeat IPC: 2.385 cumulative IPC: 1.987 (Simulation time: 02 hr 17 min 14 sec)
Heartbeat CPU 0 instructions: 290000001 cycles: 132193148 heartbeat IPC: 2.547 cumulative IPC: 2.006 (Simulation time: 02 hr 21 min 59 sec)
Heartbeat CPU 0 instructions: 300000003 cycles: 136059829 heartbeat IPC: 2.586 cumulative IPC: 2.024 (Simulation time: 02 hr 26 min 44 sec)
Heartbeat CPU 0 instructions: 310000001 cycles: 140215540 heartbeat IPC: 2.406 cumulative IPC: 2.036 (Simulation time: 02 hr 31 min 33 sec)
Heartbeat CPU 0 instructions: 320000003 cycles: 144312252 heartbeat IPC: 2.441 cumulative IPC: 2.049 (Simulation time: 02 hr 36 min 22 sec)
Heartbeat CPU 0 instructions: 330000003 cycles: 148739261 heartbeat IPC: 2.259 cumulative IPC: 2.056 (Simulation time: 02 hr 41 min 22 sec)
Heartbeat CPU 0 instructions: 340000000 cycles: 159097485 heartbeat IPC: 0.9654 cumulative IPC: 1.979 (Simulation time: 02 hr 50 min 21 sec)
Heartbeat CPU 0 instructions: 350000000 cycles: 170466330 heartbeat IPC: 0.8796 cumulative IPC: 1.9 (Simulation time: 03 hr 00 min 08 sec)
Heartbeat CPU 0 instructions: 360000004 cycles: 180814924 heartbeat IPC: 0.9663 cumulative IPC: 1.842 (Simulation time: 03 hr 09 min 10 sec)
Heartbeat CPU 0 instructions: 370000000 cycles: 184275006 heartbeat IPC: 2.89 cumulative IPC: 1.863 (Simulation time: 03 hr 13 min 38 sec)
Heartbeat CPU 0 instructions: 380000001 cycles: 187719849 heartbeat IPC: 2.903 cumulative IPC: 1.884 (Simulation time: 03 hr 18 min 11 sec)
Heartbeat CPU 0 instructions: 390000004 cycles: 191479351 heartbeat IPC: 2.66 cumulative IPC: 1.9 (Simulation time: 03 hr 22 min 47 sec)
Heartbeat CPU 0 instructions: 400000004 cycles: 195299101 heartbeat IPC: 2.618 cumulative IPC: 1.915 (Simulation time: 03 hr 27 min 25 sec)
Heartbeat CPU 0 instructions: 410000001 cycles: 198980604 heartbeat IPC: 2.716 cumulative IPC: 1.931 (Simulation time: 03 hr 31 min 57 sec)
Heartbeat CPU 0 instructions: 420000003 cycles: 203151685 heartbeat IPC: 2.397 cumulative IPC: 1.941 (Simulation time: 03 hr 36 min 47 sec)
Heartbeat CPU 0 instructions: 430000001 cycles: 206840312 heartbeat IPC: 2.711 cumulative IPC: 1.956 (Simulation time: 03 hr 41 min 26 sec)
Heartbeat CPU 0 instructions: 440000004 cycles: 210956794 heartbeat IPC: 2.429 cumulative IPC: 1.966 (Simulation time: 03 hr 46 min 22 sec)
Heartbeat CPU 0 instructions: 450000002 cycles: 214696947 heartbeat IPC: 2.674 cumulative IPC: 1.979 (Simulation time: 03 hr 51 min 13 sec)
Heartbeat CPU 0 instructions: 460000000 cycles: 218384240 heartbeat IPC: 2.712 cumulative IPC: 1.992 (Simulation time: 03 hr 55 min 49 sec)
Heartbeat CPU 0 instructions: 470000000 cycles: 221857930 heartbeat IPC: 2.879 cumulative IPC: 2.006 (Simulation time: 04 hr 00 min 21 sec)
Heartbeat CPU 0 instructions: 480000003 cycles: 225695788 heartbeat IPC: 2.606 cumulative IPC: 2.017 (Simulation time: 04 hr 04 min 58 sec)
Heartbeat CPU 0 instructions: 490000000 cycles: 229335123 heartbeat IPC: 2.748 cumulative IPC: 2.03 (Simulation time: 04 hr 09 min 30 sec)
Heartbeat CPU 0 instructions: 500000000 cycles: 233050486 heartbeat IPC: 2.692 cumulative IPC: 2.041 (Simulation time: 04 hr 14 min 06 sec)
Heartbeat CPU 0 instructions: 510000003 cycles: 236733149 heartbeat IPC: 2.715 cumulative IPC: 2.052 (Simulation time: 04 hr 18 min 46 sec)
Heartbeat CPU 0 instructions: 520000001 cycles: 240164106 heartbeat IPC: 2.915 cumulative IPC: 2.065 (Simulation time: 04 hr 23 min 18 sec)
Heartbeat CPU 0 instructions: 530000002 cycles: 243844640 heartbeat IPC: 2.717 cumulative IPC: 2.075 (Simulation time: 04 hr 27 min 56 sec)
Heartbeat CPU 0 instructions: 540000000 cycles: 247382565 heartbeat IPC: 2.827 cumulative IPC: 2.086 (Simulation time: 04 hr 32 min 28 sec)
Heartbeat CPU 0 instructions: 550000001 cycles: 251078877 heartbeat IPC: 2.705 cumulative IPC: 2.096 (Simulation time: 04 hr 37 min 05 sec)
Heartbeat CPU 0 instructions: 560000000 cycles: 255050153 heartbeat IPC: 2.518 cumulative IPC: 2.103 (Simulation time: 04 hr 41 min 46 sec)
Heartbeat CPU 0 instructions: 570000004 cycles: 261725402 heartbeat IPC: 1.498 cumulative IPC: 2.087 (Simulation time: 04 hr 48 min 23 sec)
Heartbeat CPU 0 instructions: 580000003 cycles: 273547864 heartbeat IPC: 0.8458 cumulative IPC: 2.031 (Simulation time: 04 hr 58 min 25 sec)
Heartbeat CPU 0 instructions: 590000002 cycles: 287221320 heartbeat IPC: 0.7313 cumulative IPC: 1.966 (Simulation time: 05 hr 09 min 40 sec)
Heartbeat CPU 0 instructions: 600000000 cycles: 291014484 heartbeat IPC: 2.636 cumulative IPC: 1.975 (Simulation time: 05 hr 14 min 19 sec)
Heartbeat CPU 0 instructions: 610000000 cycles: 294902565 heartbeat IPC: 2.572 cumulative IPC: 1.983 (Simulation time: 05 hr 18 min 58 sec)
Heartbeat CPU 0 instructions: 620000001 cycles: 298349223 heartbeat IPC: 2.901 cumulative IPC: 1.994 (Simulation time: 05 hr 23 min 37 sec)
Heartbeat CPU 0 instructions: 630000002 cycles: 302644735 heartbeat IPC: 2.328 cumulative IPC: 1.999 (Simulation time: 05 hr 28 min 31 sec)
Heartbeat CPU 0 instructions: 640000001 cycles: 306543734 heartbeat IPC: 2.565 cumulative IPC: 2.007 (Simulation time: 05 hr 33 min 12 sec)
Heartbeat CPU 0 instructions: 650000000 cycles: 310299548 heartbeat IPC: 2.663 cumulative IPC: 2.015 (Simulation time: 05 hr 37 min 47 sec)
Simulation finished CPU 0 instructions: 600000001 cycles: 297762457 cumulative IPC: 2.015 (Simulation time: 05 hr 37 min 47 sec)
Simulation complete CPU 0 instructions: 600000001 cycles: 297762457 cumulative IPC: 2.015 (Simulation time: 05 hr 37 min 47 sec)

ChampSim completed all CPUs

=== Simulation ===
CPU 0 runs traces/400.perlbench-41B.champsimtrace.xz
Region of Interest Statistics

CPU 0 cumulative IPC: 2.015 instructions: 600000001 cycles: 297762457
CPU 0 Branch Prediction Accuracy: 96.56% MPKI: 7.112 Average ROB Occupancy at Mispredict: 47.26
Branch type MPKI
BRANCH_DIRECT_JUMP: 0.0123
BRANCH_INDIRECT: 0.323
BRANCH_CONDITIONAL: 6.56
BRANCH_DIRECT_CALL: 0.0043
BRANCH_INDIRECT_CALL: 0.2
BRANCH_RETURN: 0.00828

LLC TOTAL        ACCESS:     674105 HIT:     228869 MISS:     445236
LLC LOAD         ACCESS:     307970 HIT:     123712 MISS:     184258
LLC RFO          ACCESS:      24991 HIT:       8281 MISS:      16710
LLC PREFETCH     ACCESS:     261945 HIT:      31221 MISS:     230724
LLC WRITE        ACCESS:      63586 HIT:      61201 MISS:       2385
LLC TRANSLATION  ACCESS:      15613 HIT:       4454 MISS:      11159
LLC PREFETCH REQUESTED:     270521 ISSUED:     261945 USEFUL:      86712 USELESS:     124796
LLC AVERAGE MISS LATENCY: 749.9 cycles
cpu0_DTLB TOTAL        ACCESS:  141883213 HIT:  141197933 MISS:     685280
cpu0_DTLB LOAD         ACCESS:  141883213 HIT:  141197933 MISS:     685280
cpu0_DTLB RFO          ACCESS:          0 HIT:          0 MISS:          0
cpu0_DTLB PREFETCH     ACCESS:          0 HIT:          0 MISS:          0
cpu0_DTLB WRITE        ACCESS:          0 HIT:          0 MISS:          0
cpu0_DTLB TRANSLATION  ACCESS:          0 HIT:          0 MISS:          0
cpu0_DTLB PREFETCH REQUESTED:          0 ISSUED:          0 USEFUL:          0 USELESS:          0
cpu0_DTLB AVERAGE MISS LATENCY: 17.62 cycles
cpu0_ITLB TOTAL        ACCESS:    4857522 HIT:    4804224 MISS:      53298
cpu0_ITLB LOAD         ACCESS:    4857522 HIT:    4804224 MISS:      53298
cpu0_ITLB RFO          ACCESS:          0 HIT:          0 MISS:          0
cpu0_ITLB PREFETCH     ACCESS:          0 HIT:          0 MISS:          0
cpu0_ITLB WRITE        ACCESS:          0 HIT:          0 MISS:          0
cpu0_ITLB TRANSLATION  ACCESS:          0 HIT:          0 MISS:          0
cpu0_ITLB PREFETCH REQUESTED:          0 ISSUED:          0 USEFUL:          0 USELESS:          0
cpu0_ITLB AVERAGE MISS LATENCY: 9.146 cycles
cpu0_L1D TOTAL        ACCESS:  188561178 HIT:  187223538 MISS:    1337640
cpu0_L1D LOAD         ACCESS:  105193047 HIT:  104164911 MISS:    1028136
cpu0_L1D RFO          ACCESS:          0 HIT:          0 MISS:          0
cpu0_L1D PREFETCH     ACCESS:          0 HIT:          0 MISS:          0
cpu0_L1D WRITE        ACCESS:   83343666 HIT:   83057018 MISS:     286648
cpu0_L1D TRANSLATION  ACCESS:      24465 HIT:       1609 MISS:      22856
cpu0_L1D PREFETCH REQUESTED:          0 ISSUED:          0 USEFUL:          0 USELESS:          0
cpu0_L1D AVERAGE MISS LATENCY: 112.9 cycles
cpu0_L1I TOTAL        ACCESS:    5594808 HIT:    4850770 MISS:     744038
cpu0_L1I LOAD         ACCESS:    5594808 HIT:    4850770 MISS:     744038
cpu0_L1I RFO          ACCESS:          0 HIT:          0 MISS:          0
cpu0_L1I PREFETCH     ACCESS:          0 HIT:          0 MISS:          0
cpu0_L1I WRITE        ACCESS:          0 HIT:          0 MISS:          0
cpu0_L1I TRANSLATION  ACCESS:          0 HIT:          0 MISS:          0
cpu0_L1I PREFETCH REQUESTED:          0 ISSUED:          0 USEFUL:          0 USELESS:          0
cpu0_L1I AVERAGE MISS LATENCY: 16.7 cycles
cpu0_L2C TOTAL        ACCESS:    1380872 HIT:    1031470 MISS:     349402
cpu0_L2C LOAD         ACCESS:    1124763 HIT:     816793 MISS:     307970
cpu0_L2C RFO          ACCESS:      63795 HIT:      38804 MISS:      24991
cpu0_L2C PREFETCH     ACCESS:          0 HIT:          0 MISS:          0
cpu0_L2C WRITE        ACCESS:     169529 HIT:     168701 MISS:        828
cpu0_L2C TRANSLATION  ACCESS:      22785 HIT:       7172 MISS:      15613
cpu0_L2C PREFETCH REQUESTED:          0 ISSUED:          0 USEFUL:          0 USELESS:          0
cpu0_L2C AVERAGE MISS LATENCY: 447.8 cycles
cpu0_STLB TOTAL        ACCESS:     507173 HIT:     484379 MISS:      22794
cpu0_STLB LOAD         ACCESS:     507173 HIT:     484379 MISS:      22794
cpu0_STLB RFO          ACCESS:          0 HIT:          0 MISS:          0
cpu0_STLB PREFETCH     ACCESS:          0 HIT:          0 MISS:          0
cpu0_STLB WRITE        ACCESS:          0 HIT:          0 MISS:          0
cpu0_STLB TRANSLATION  ACCESS:          0 HIT:          0 MISS:          0
cpu0_STLB PREFETCH REQUESTED:          0 ISSUED:          0 USEFUL:          0 USELESS:          0
cpu0_STLB AVERAGE MISS LATENCY: 416.8 cycles

DRAM Statistics

Channel 0 RQ ROW_BUFFER_HIT:     144917
  ROW_BUFFER_MISS:     285708
 AVG DBUS CONGESTED CYCLE: 3.909
WQ ROW_BUFFER_HIT: Channel 0 
  ROW_BUFFER_MISS:       4952
  FULL:      44443
