WARNING: physical memory size is smaller than virtual memory size.

*** ChampSim Multicore Out-of-Order Simulator ***
Warmup Instructions: 50000000
Simulation Instructions: 600000000
Number of CPUs: 1
Page size: 4096

Off-chip DRAM Size: 4 GiB Channels: 1 Width: 64-bit Data Race: 3200 MT/s
Heartbeat CPU 0 instructions: 10000001 cycles: 2500318 heartbeat IPC: 3.999 cumulative IPC: 3.999 (Simulation time: 00 hr 00 min 35 sec)
Heartbeat CPU 0 instructions: 20000002 cycles: 5037108 heartbeat IPC: 3.942 cumulative IPC: 3.971 (Simulation time: 00 hr 01 min 09 sec)
Heartbeat CPU 0 instructions: 30000002 cycles: 7537108 heartbeat IPC: 4 cumulative IPC: 3.98 (Simulation time: 00 hr 01 min 40 sec)
Heartbeat CPU 0 instructions: 40000002 cycles: 10037108 heartbeat IPC: 4 cumulative IPC: 3.985 (Simulation time: 00 hr 02 min 11 sec)
Heartbeat CPU 0 instructions: 50000002 cycles: 12537108 heartbeat IPC: 4 cumulative IPC: 3.988 (Simulation time: 00 hr 02 min 41 sec)
Warmup finished CPU 0 instructions: 50000002 cycles: 12537109 cumulative IPC: 3.988 (Simulation time: 00 hr 02 min 41 sec)
Warmup complete CPU 0 instructions: 50000002 cycles: 12537109 cumulative IPC: 3.988 (Simulation time: 00 hr 02 min 41 sec)
Heartbeat CPU 0 instructions: 60000000 cycles: 17149147 heartbeat IPC: 2.168 cumulative IPC: 2.168 (Simulation time: 00 hr 03 min 23 sec)
Heartbeat CPU 0 instructions: 70000004 cycles: 21421865 heartbeat IPC: 2.34 cumulative IPC: 2.251 (Simulation time: 00 hr 04 min 05 sec)
Heartbeat CPU 0 instructions: 80000001 cycles: 26022205 heartbeat IPC: 2.174 cumulative IPC: 2.225 (Simulation time: 00 hr 04 min 47 sec)
Heartbeat CPU 0 instructions: 90000001 cycles: 30147107 heartbeat IPC: 2.424 cumulative IPC: 2.271 (Simulation time: 00 hr 05 min 28 sec)
Heartbeat CPU 0 instructions: 100000000 cycles: 34200692 heartbeat IPC: 2.467 cumulative IPC: 2.308 (Simulation time: 00 hr 06 min 09 sec)
Heartbeat CPU 0 instructions: 110000000 cycles: 38431590 heartbeat IPC: 2.364 cumulative IPC: 2.317 (Simulation time: 00 hr 06 min 50 sec)
Heartbeat CPU 0 instructions: 120000001 cycles: 42439302 heartbeat IPC: 2.495 cumulative IPC: 2.341 (Simulation time: 00 hr 07 min 31 sec)
Heartbeat CPU 0 instructions: 130000001 cycles: 46174416 heartbeat IPC: 2.677 cumulative IPC: 2.378 (Simulation time: 00 hr 08 min 12 sec)
Heartbeat CPU 0 instructions: 140000001 cycles: 50337357 heartbeat IPC: 2.402 cumulative IPC: 2.381 (Simulation time: 00 hr 08 min 53 sec)
Heartbeat CPU 0 instructions: 150000001 cycles: 54540742 heartbeat IPC: 2.379 cumulative IPC: 2.381 (Simulation time: 00 hr 09 min 34 sec)
Heartbeat CPU 0 instructions: 160000004 cycles: 58955375 heartbeat IPC: 2.265 cumulative IPC: 2.37 (Simulation time: 00 hr 10 min 16 sec)
Heartbeat CPU 0 instructions: 170000004 cycles: 68618837 heartbeat IPC: 1.035 cumulative IPC: 2.14 (Simulation time: 00 hr 11 min 26 sec)
Heartbeat CPU 0 instructions: 180000004 cycles: 79824131 heartbeat IPC: 0.8924 cumulative IPC: 1.932 (Simulation time: 00 hr 12 min 43 sec)
Heartbeat CPU 0 instructions: 190000001 cycles: 90384575 heartbeat IPC: 0.9469 cumulative IPC: 1.798 (Simulation time: 00 hr 13 min 57 sec)
Heartbeat CPU 0 instructions: 200000004 cycles: 94169780 heartbeat IPC: 2.642 cumulative IPC: 1.837 (Simulation time: 00 hr 14 min 37 sec)
Heartbeat CPU 0 instructions: 210000001 cycles: 98087817 heartbeat IPC: 2.552 cumulative IPC: 1.87 (Simulation time: 00 hr 15 min 18 sec)
Heartbeat CPU 0 instructions: 220000000 cycles: 102051483 heartbeat IPC: 2.523 cumulative IPC: 1.899 (Simulation time: 00 hr 15 min 58 sec)
Heartbeat CPU 0 instructions: 230000002 cycles: 106719933 heartbeat IPC: 2.142 cumulative IPC: 1.911 (Simulation time: 00 hr 16 min 41 sec)
Heartbeat CPU 0 instructions: 240000000 cycles: 110913640 heartbeat IPC: 2.385 cumulative IPC: 1.931 (Simulation time: 00 hr 17 min 56 sec)
Heartbeat CPU 0 instructions: 250000000 cycles: 115237918 heartbeat IPC: 2.313 cumulative IPC: 1.947 (Simulation time: 00 hr 19 min 14 sec)
Heartbeat CPU 0 instructions: 260000000 cycles: 119417513 heartbeat IPC: 2.393 cumulative IPC: 1.965 (Simulation time: 00 hr 20 min 33 sec)
Heartbeat CPU 0 instructions: 270000002 cycles: 123269537 heartbeat IPC: 2.596 cumulative IPC: 1.987 (Simulation time: 00 hr 21 min 49 sec)
Heartbeat CPU 0 instructions: 280000002 cycles: 127433834 heartbeat IPC: 2.401 cumulative IPC: 2.002 (Simulation time: 00 hr 23 min 09 sec)
Heartbeat CPU 0 instructions: 290000001 cycles: 131337986 heartbeat IPC: 2.561 cumulative IPC: 2.02 (Simulation time: 00 hr 24 min 26 sec)
Heartbeat CPU 0 instructions: 300000003 cycles: 135169084 heartbeat IPC: 2.61 cumulative IPC: 2.039 (Simulation time: 00 hr 25 min 41 sec)
Heartbeat CPU 0 instructions: 310000001 cycles: 139295296 heartbeat IPC: 2.424 cumulative IPC: 2.051 (Simulation time: 00 hr 26 min 22 sec)
Heartbeat CPU 0 instructions: 320000003 cycles: 143376684 heartbeat IPC: 2.45 cumulative IPC: 2.064 (Simulation time: 00 hr 27 min 04 sec)
Heartbeat CPU 0 instructions: 330000003 cycles: 147790572 heartbeat IPC: 2.266 cumulative IPC: 2.07 (Simulation time: 00 hr 27 min 46 sec)
Heartbeat CPU 0 instructions: 340000000 cycles: 157292238 heartbeat IPC: 1.052 cumulative IPC: 2.003 (Simulation time: 00 hr 28 min 54 sec)
Heartbeat CPU 0 instructions: 350000000 cycles: 168150034 heartbeat IPC: 0.921 cumulative IPC: 1.928 (Simulation time: 00 hr 30 min 11 sec)
Heartbeat CPU 0 instructions: 360000004 cycles: 178479738 heartbeat IPC: 0.9681 cumulative IPC: 1.868 (Simulation time: 00 hr 31 min 25 sec)
Heartbeat CPU 0 instructions: 370000000 cycles: 181923789 heartbeat IPC: 2.904 cumulative IPC: 1.889 (Simulation time: 00 hr 32 min 03 sec)
Heartbeat CPU 0 instructions: 380000001 cycles: 185337824 heartbeat IPC: 2.929 cumulative IPC: 1.91 (Simulation time: 00 hr 32 min 42 sec)
Heartbeat CPU 0 instructions: 390000004 cycles: 189078388 heartbeat IPC: 2.673 cumulative IPC: 1.926 (Simulation time: 00 hr 33 min 21 sec)
Heartbeat CPU 0 instructions: 400000004 cycles: 192886332 heartbeat IPC: 2.626 cumulative IPC: 1.941 (Simulation time: 00 hr 34 min 01 sec)
Heartbeat CPU 0 instructions: 410000001 cycles: 196538024 heartbeat IPC: 2.738 cumulative IPC: 1.957 (Simulation time: 00 hr 34 min 40 sec)
Heartbeat CPU 0 instructions: 420000003 cycles: 200680663 heartbeat IPC: 2.414 cumulative IPC: 1.967 (Simulation time: 00 hr 35 min 21 sec)
Heartbeat CPU 0 instructions: 430000001 cycles: 204335577 heartbeat IPC: 2.736 cumulative IPC: 1.981 (Simulation time: 00 hr 36 min 01 sec)
Heartbeat CPU 0 instructions: 440000004 cycles: 208424562 heartbeat IPC: 2.446 cumulative IPC: 1.991 (Simulation time: 00 hr 36 min 42 sec)
Heartbeat CPU 0 instructions: 450000002 cycles: 212162221 heartbeat IPC: 2.675 cumulative IPC: 2.004 (Simulation time: 00 hr 37 min 21 sec)
Heartbeat CPU 0 instructions: 460000000 cycles: 215828520 heartbeat IPC: 2.728 cumulative IPC: 2.017 (Simulation time: 00 hr 38 min 00 sec)
Heartbeat CPU 0 instructions: 470000000 cycles: 219291485 heartbeat IPC: 2.888 cumulative IPC: 2.031 (Simulation time: 00 hr 38 min 39 sec)
Heartbeat CPU 0 instructions: 480000003 cycles: 223145925 heartbeat IPC: 2.594 cumulative IPC: 2.042 (Simulation time: 00 hr 39 min 19 sec)
Heartbeat CPU 0 instructions: 490000000 cycles: 226772364 heartbeat IPC: 2.758 cumulative IPC: 2.054 (Simulation time: 00 hr 39 min 57 sec)
Heartbeat CPU 0 instructions: 500000000 cycles: 230468959 heartbeat IPC: 2.705 cumulative IPC: 2.065 (Simulation time: 00 hr 40 min 37 sec)
Heartbeat CPU 0 instructions: 510000003 cycles: 234189684 heartbeat IPC: 2.688 cumulative IPC: 2.075 (Simulation time: 00 hr 41 min 17 sec)
Heartbeat CPU 0 instructions: 520000001 cycles: 237605490 heartbeat IPC: 2.928 cumulative IPC: 2.088 (Simulation time: 00 hr 41 min 55 sec)
Heartbeat CPU 0 instructions: 530000002 cycles: 241270930 heartbeat IPC: 2.728 cumulative IPC: 2.099 (Simulation time: 00 hr 42 min 34 sec)
Heartbeat CPU 0 instructions: 540000000 cycles: 244794298 heartbeat IPC: 2.838 cumulative IPC: 2.11 (Simulation time: 00 hr 43 min 12 sec)
Heartbeat CPU 0 instructions: 550000001 cycles: 248489432 heartbeat IPC: 2.706 cumulative IPC: 2.119 (Simulation time: 00 hr 43 min 50 sec)
Heartbeat CPU 0 instructions: 560000000 cycles: 252521243 heartbeat IPC: 2.48 cumulative IPC: 2.125 (Simulation time: 00 hr 44 min 30 sec)
Heartbeat CPU 0 instructions: 570000004 cycles: 258661163 heartbeat IPC: 1.629 cumulative IPC: 2.113 (Simulation time: 00 hr 45 min 20 sec)
Heartbeat CPU 0 instructions: 580000003 cycles: 269829154 heartbeat IPC: 0.8954 cumulative IPC: 2.06 (Simulation time: 00 hr 46 min 33 sec)
Heartbeat CPU 0 instructions: 590000002 cycles: 283132012 heartbeat IPC: 0.7517 cumulative IPC: 1.996 (Simulation time: 00 hr 47 min 56 sec)
Heartbeat CPU 0 instructions: 600000000 cycles: 286908294 heartbeat IPC: 2.648 cumulative IPC: 2.005 (Simulation time: 00 hr 48 min 31 sec)
Heartbeat CPU 0 instructions: 610000000 cycles: 290772225 heartbeat IPC: 2.588 cumulative IPC: 2.013 (Simulation time: 00 hr 49 min 08 sec)
Heartbeat CPU 0 instructions: 620000001 cycles: 294207588 heartbeat IPC: 2.911 cumulative IPC: 2.024 (Simulation time: 00 hr 49 min 42 sec)
Heartbeat CPU 0 instructions: 630000002 cycles: 298485142 heartbeat IPC: 2.338 cumulative IPC: 2.028 (Simulation time: 00 hr 50 min 17 sec)
Heartbeat CPU 0 instructions: 640000001 cycles: 302382831 heartbeat IPC: 2.566 cumulative IPC: 2.036 (Simulation time: 00 hr 50 min 49 sec)
Heartbeat CPU 0 instructions: 650000000 cycles: 306138306 heartbeat IPC: 2.663 cumulative IPC: 2.044 (Simulation time: 00 hr 51 min 22 sec)
Simulation finished CPU 0 instructions: 600000001 cycles: 293601199 cumulative IPC: 2.044 (Simulation time: 00 hr 51 min 22 sec)
Simulation complete CPU 0 instructions: 600000001 cycles: 293601199 cumulative IPC: 2.044 (Simulation time: 00 hr 51 min 22 sec)

ChampSim completed all CPUs

=== Simulation ===
CPU 0 runs traces/400.perlbench-41B.champsimtrace.xz
Region of Interest Statistics

CPU 0 cumulative IPC: 2.044 instructions: 600000001 cycles: 293601199
CPU 0 Branch Prediction Accuracy: 96.56% MPKI: 7.112 Average ROB Occupancy at Mispredict: 47.26
Branch type MPKI
BRANCH_DIRECT_JUMP: 0.0123
BRANCH_INDIRECT: 0.323
BRANCH_CONDITIONAL: 6.56
BRANCH_DIRECT_CALL: 0.0043
BRANCH_INDIRECT_CALL: 0.2
BRANCH_RETURN: 0.00828

LLC TOTAL        ACCESS:     414908 HIT:     144192 MISS:     270716
LLC LOAD         ACCESS:     309790 HIT:      85983 MISS:     223807
LLC RFO          ACCESS:      25163 HIT:      10617 MISS:      14546
LLC PREFETCH     ACCESS:          0 HIT:          0 MISS:          0
LLC WRITE        ACCESS:      64197 HIT:      42330 MISS:      21867
LLC TRANSLATION  ACCESS:      15758 HIT:       5262 MISS:      10496
LLC PREFETCH REQUESTED:          0 ISSUED:          0 USEFUL:          0 USELESS:          0
LLC AVERAGE MISS LATENCY: 526.6 cycles
cpu0_DTLB TOTAL        ACCESS:  141890433 HIT:  141204388 MISS:     686045
cpu0_DTLB LOAD         ACCESS:  141890433 HIT:  141204388 MISS:     686045
cpu0_DTLB RFO          ACCESS:          0 HIT:          0 MISS:          0
cpu0_DTLB PREFETCH     ACCESS:          0 HIT:          0 MISS:          0
cpu0_DTLB WRITE        ACCESS:          0 HIT:          0 MISS:          0
cpu0_DTLB TRANSLATION  ACCESS:          0 HIT:          0 MISS:          0
cpu0_DTLB PREFETCH REQUESTED:          0 ISSUED:          0 USEFUL:          0 USELESS:          0
cpu0_DTLB AVERAGE MISS LATENCY: 15.47 cycles
cpu0_ITLB TOTAL        ACCESS:    4859012 HIT:    4805711 MISS:      53301
cpu0_ITLB LOAD         ACCESS:    4859012 HIT:    4805711 MISS:      53301
cpu0_ITLB RFO          ACCESS:          0 HIT:          0 MISS:          0
cpu0_ITLB PREFETCH     ACCESS:          0 HIT:          0 MISS:          0
cpu0_ITLB WRITE        ACCESS:          0 HIT:          0 MISS:          0
cpu0_ITLB TRANSLATION  ACCESS:          0 HIT:          0 MISS:          0
cpu0_ITLB PREFETCH REQUESTED:          0 ISSUED:          0 USEFUL:          0 USELESS:          0
cpu0_ITLB AVERAGE MISS LATENCY: 7.694 cycles
cpu0_L1D TOTAL        ACCESS:  188562102 HIT:  187214191 MISS:    1347911
cpu0_L1D LOAD         ACCESS:  105194242 HIT:  104153394 MISS:    1040848
cpu0_L1D RFO          ACCESS:          0 HIT:          0 MISS:          0
cpu0_L1D PREFETCH     ACCESS:          0 HIT:          0 MISS:          0
cpu0_L1D WRITE        ACCESS:   83343397 HIT:   83059190 MISS:     284207
cpu0_L1D TRANSLATION  ACCESS:      24463 HIT:       1607 MISS:      22856
cpu0_L1D PREFETCH REQUESTED:          0 ISSUED:          0 USEFUL:          0 USELESS:          0
cpu0_L1D AVERAGE MISS LATENCY: 109.7 cycles
cpu0_L1I TOTAL        ACCESS:    5596813 HIT:    4852712 MISS:     744101
cpu0_L1I LOAD         ACCESS:    5596813 HIT:    4852712 MISS:     744101
cpu0_L1I RFO          ACCESS:          0 HIT:          0 MISS:          0
cpu0_L1I PREFETCH     ACCESS:          0 HIT:          0 MISS:          0
cpu0_L1I WRITE        ACCESS:          0 HIT:          0 MISS:          0
cpu0_L1I TRANSLATION  ACCESS:          0 HIT:          0 MISS:          0
cpu0_L1I PREFETCH REQUESTED:          0 ISSUED:          0 USEFUL:          0 USELESS:          0
cpu0_L1I AVERAGE MISS LATENCY: 11.31 cycles
cpu0_L2C TOTAL        ACCESS:    1380891 HIT:    1029307 MISS:     351584
cpu0_L2C LOAD         ACCESS:    1124760 HIT:     814970 MISS:     309790
cpu0_L2C RFO          ACCESS:      63782 HIT:      38619 MISS:      25163
cpu0_L2C PREFETCH     ACCESS:          0 HIT:          0 MISS:          0
cpu0_L2C WRITE        ACCESS:     169560 HIT:     168687 MISS:        873
cpu0_L2C TRANSLATION  ACCESS:      22789 HIT:       7031 MISS:      15758
cpu0_L2C PREFETCH REQUESTED:          0 ISSUED:          0 USEFUL:          0 USELESS:          0
cpu0_L2C AVERAGE MISS LATENCY: 426.1 cycles
cpu0_STLB TOTAL        ACCESS:     507314 HIT:     484520 MISS:      22794
cpu0_STLB LOAD         ACCESS:     507314 HIT:     484520 MISS:      22794
cpu0_STLB RFO          ACCESS:          0 HIT:          0 MISS:          0
cpu0_STLB PREFETCH     ACCESS:          0 HIT:          0 MISS:          0
cpu0_STLB WRITE        ACCESS:          0 HIT:          0 MISS:          0
cpu0_STLB TRANSLATION  ACCESS:          0 HIT:          0 MISS:          0
cpu0_STLB PREFETCH REQUESTED:          0 ISSUED:          0 USEFUL:          0 USELESS:          0
cpu0_STLB AVERAGE MISS LATENCY: 347.4 cycles

DRAM Statistics

Channel 0 RQ ROW_BUFFER_HIT:      39370
  ROW_BUFFER_MISS:     209431
 AVG DBUS CONGESTED CYCLE: 3.81
WQ ROW_BUFFER_HIT: Channel 0 
  ROW_BUFFER_MISS:       8134
  FULL:      32583
Final OPTGen Hits: 2845
Final OPTGen Access: 6759
Final OPTGEN Hit Rate: 42.0921
