WARNING: physical memory size is smaller than virtual memory size.

*** ChampSim Multicore Out-of-Order Simulator ***
Warmup Instructions: 50000000
Simulation Instructions: 600000000
Number of CPUs: 1
Page size: 4096

CPU 0 Tage branch predictor
Off-chip DRAM Size: 4 GiB Channels: 1 Width: 64-bit Data Race: 3200 MT/s
Heartbeat CPU 0 instructions: 10000000 cycles: 2500061 heartbeat IPC: 4 cumulative IPC: 4 (Simulation time: 00 hr 04 min 37 sec)
Heartbeat CPU 0 instructions: 20000000 cycles: 5000061 heartbeat IPC: 4 cumulative IPC: 4 (Simulation time: 00 hr 09 min 00 sec)
Heartbeat CPU 0 instructions: 30000000 cycles: 7500061 heartbeat IPC: 4 cumulative IPC: 4 (Simulation time: 00 hr 13 min 07 sec)
Heartbeat CPU 0 instructions: 40000000 cycles: 10000061 heartbeat IPC: 4 cumulative IPC: 4 (Simulation time: 00 hr 17 min 32 sec)
Heartbeat CPU 0 instructions: 50000000 cycles: 12500061 heartbeat IPC: 4 cumulative IPC: 4 (Simulation time: 00 hr 22 min 06 sec)
Warmup finished CPU 0 instructions: 50000000 cycles: 12500062 cumulative IPC: 4 (Simulation time: 00 hr 22 min 06 sec)
Warmup complete CPU 0 instructions: 50000000 cycles: 12500062 cumulative IPC: 4 (Simulation time: 00 hr 22 min 06 sec)
Heartbeat CPU 0 instructions: 60000004 cycles: 15503998 heartbeat IPC: 3.329 cumulative IPC: 3.329 (Simulation time: 00 hr 27 min 25 sec)
Heartbeat CPU 0 instructions: 70000003 cycles: 18369852 heartbeat IPC: 3.489 cumulative IPC: 3.407 (Simulation time: 00 hr 32 min 41 sec)
Heartbeat CPU 0 instructions: 80000002 cycles: 21380918 heartbeat IPC: 3.321 cumulative IPC: 3.378 (Simulation time: 00 hr 38 min 08 sec)
Heartbeat CPU 0 instructions: 90000000 cycles: 24098695 heartbeat IPC: 3.679 cumulative IPC: 3.449 (Simulation time: 00 hr 43 min 07 sec)
Heartbeat CPU 0 instructions: 100000003 cycles: 26855195 heartbeat IPC: 3.628 cumulative IPC: 3.483 (Simulation time: 00 hr 48 min 08 sec)
Heartbeat CPU 0 instructions: 110000001 cycles: 29752526 heartbeat IPC: 3.451 cumulative IPC: 3.478 (Simulation time: 00 hr 53 min 00 sec)
Heartbeat CPU 0 instructions: 120000001 cycles: 32468927 heartbeat IPC: 3.681 cumulative IPC: 3.505 (Simulation time: 00 hr 57 min 54 sec)
Heartbeat CPU 0 instructions: 130000003 cycles: 35368195 heartbeat IPC: 3.449 cumulative IPC: 3.498 (Simulation time: 01 hr 02 min 46 sec)
Heartbeat CPU 0 instructions: 140000002 cycles: 38202123 heartbeat IPC: 3.529 cumulative IPC: 3.502 (Simulation time: 01 hr 07 min 39 sec)
Heartbeat CPU 0 instructions: 150000001 cycles: 40972190 heartbeat IPC: 3.61 cumulative IPC: 3.512 (Simulation time: 01 hr 12 min 39 sec)
Heartbeat CPU 0 instructions: 160000000 cycles: 43889670 heartbeat IPC: 3.428 cumulative IPC: 3.504 (Simulation time: 01 hr 17 min 28 sec)
Heartbeat CPU 0 instructions: 170000001 cycles: 46817544 heartbeat IPC: 3.415 cumulative IPC: 3.497 (Simulation time: 01 hr 22 min 21 sec)
Heartbeat CPU 0 instructions: 180000000 cycles: 49608288 heartbeat IPC: 3.583 cumulative IPC: 3.503 (Simulation time: 01 hr 27 min 14 sec)
Heartbeat CPU 0 instructions: 190000002 cycles: 52316250 heartbeat IPC: 3.693 cumulative IPC: 3.516 (Simulation time: 01 hr 32 min 06 sec)
Heartbeat CPU 0 instructions: 200000002 cycles: 55136667 heartbeat IPC: 3.546 cumulative IPC: 3.518 (Simulation time: 01 hr 36 min 53 sec)
Heartbeat CPU 0 instructions: 210000000 cycles: 58029132 heartbeat IPC: 3.457 cumulative IPC: 3.514 (Simulation time: 01 hr 41 min 44 sec)
Heartbeat CPU 0 instructions: 220000001 cycles: 60781160 heartbeat IPC: 3.634 cumulative IPC: 3.521 (Simulation time: 01 hr 46 min 34 sec)
Heartbeat CPU 0 instructions: 230000002 cycles: 63670325 heartbeat IPC: 3.461 cumulative IPC: 3.518 (Simulation time: 01 hr 51 min 23 sec)
Heartbeat CPU 0 instructions: 240000004 cycles: 66621675 heartbeat IPC: 3.388 cumulative IPC: 3.511 (Simulation time: 01 hr 56 min 17 sec)
Heartbeat CPU 0 instructions: 250000003 cycles: 69512111 heartbeat IPC: 3.46 cumulative IPC: 3.508 (Simulation time: 02 hr 01 min 12 sec)
Heartbeat CPU 0 instructions: 260000001 cycles: 72296908 heartbeat IPC: 3.591 cumulative IPC: 3.512 (Simulation time: 02 hr 06 min 01 sec)
Heartbeat CPU 0 instructions: 270000002 cycles: 78116283 heartbeat IPC: 1.718 cumulative IPC: 3.353 (Simulation time: 02 hr 12 min 53 sec)
Heartbeat CPU 0 instructions: 280000000 cycles: 88123764 heartbeat IPC: 0.9993 cumulative IPC: 3.041 (Simulation time: 02 hr 22 min 41 sec)
Heartbeat CPU 0 instructions: 290000000 cycles: 97534676 heartbeat IPC: 1.063 cumulative IPC: 2.822 (Simulation time: 02 hr 32 min 07 sec)
Heartbeat CPU 0 instructions: 300000003 cycles: 103205807 heartbeat IPC: 1.763 cumulative IPC: 2.756 (Simulation time: 02 hr 39 min 15 sec)
Heartbeat CPU 0 instructions: 310000001 cycles: 112319001 heartbeat IPC: 1.097 cumulative IPC: 2.605 (Simulation time: 02 hr 48 min 45 sec)
Heartbeat CPU 0 instructions: 320000004 cycles: 116362446 heartbeat IPC: 2.473 cumulative IPC: 2.6 (Simulation time: 02 hr 54 min 40 sec)
Heartbeat CPU 0 instructions: 330000000 cycles: 119514215 heartbeat IPC: 3.173 cumulative IPC: 2.616 (Simulation time: 02 hr 59 min 49 sec)
Heartbeat CPU 0 instructions: 340000001 cycles: 122591839 heartbeat IPC: 3.249 cumulative IPC: 2.634 (Simulation time: 03 hr 04 min 57 sec)
Heartbeat CPU 0 instructions: 350000000 cycles: 125657610 heartbeat IPC: 3.262 cumulative IPC: 2.651 (Simulation time: 03 hr 10 min 01 sec)
Heartbeat CPU 0 instructions: 360000004 cycles: 128477512 heartbeat IPC: 3.546 cumulative IPC: 2.673 (Simulation time: 03 hr 14 min 59 sec)
Heartbeat CPU 0 instructions: 370000001 cycles: 131264503 heartbeat IPC: 3.588 cumulative IPC: 2.694 (Simulation time: 03 hr 19 min 52 sec)
Heartbeat CPU 0 instructions: 380000004 cycles: 134081164 heartbeat IPC: 3.55 cumulative IPC: 2.714 (Simulation time: 03 hr 24 min 47 sec)
Heartbeat CPU 0 instructions: 390000002 cycles: 137033773 heartbeat IPC: 3.387 cumulative IPC: 2.73 (Simulation time: 03 hr 29 min 50 sec)
Heartbeat CPU 0 instructions: 400000000 cycles: 139975602 heartbeat IPC: 3.399 cumulative IPC: 2.746 (Simulation time: 03 hr 34 min 53 sec)
Heartbeat CPU 0 instructions: 410000000 cycles: 145700322 heartbeat IPC: 1.747 cumulative IPC: 2.703 (Simulation time: 03 hr 41 min 51 sec)
Heartbeat CPU 0 instructions: 420000003 cycles: 155185151 heartbeat IPC: 1.054 cumulative IPC: 2.593 (Simulation time: 03 hr 51 min 23 sec)
Heartbeat CPU 0 instructions: 430000004 cycles: 161048015 heartbeat IPC: 1.706 cumulative IPC: 2.558 (Simulation time: 03 hr 58 min 44 sec)
Heartbeat CPU 0 instructions: 440000004 cycles: 167397775 heartbeat IPC: 1.575 cumulative IPC: 2.518 (Simulation time: 04 hr 06 min 12 sec)
Heartbeat CPU 0 instructions: 450000000 cycles: 173187592 heartbeat IPC: 1.727 cumulative IPC: 2.489 (Simulation time: 04 hr 13 min 18 sec)
Heartbeat CPU 0 instructions: 460000002 cycles: 184128756 heartbeat IPC: 0.914 cumulative IPC: 2.389 (Simulation time: 04 hr 23 min 50 sec)
Heartbeat CPU 0 instructions: 470000003 cycles: 192334924 heartbeat IPC: 1.219 cumulative IPC: 2.335 (Simulation time: 04 hr 32 min 34 sec)
Heartbeat CPU 0 instructions: 480000000 cycles: 195790893 heartbeat IPC: 2.894 cumulative IPC: 2.346 (Simulation time: 04 hr 37 min 56 sec)
Heartbeat CPU 0 instructions: 490000001 cycles: 198984770 heartbeat IPC: 3.131 cumulative IPC: 2.359 (Simulation time: 04 hr 43 min 11 sec)
Heartbeat CPU 0 instructions: 500000002 cycles: 202005958 heartbeat IPC: 3.31 cumulative IPC: 2.375 (Simulation time: 04 hr 48 min 13 sec)
Heartbeat CPU 0 instructions: 510000000 cycles: 204899052 heartbeat IPC: 3.457 cumulative IPC: 2.391 (Simulation time: 04 hr 53 min 13 sec)
Heartbeat CPU 0 instructions: 520000000 cycles: 207826195 heartbeat IPC: 3.416 cumulative IPC: 2.406 (Simulation time: 04 hr 58 min 18 sec)
Heartbeat CPU 0 instructions: 530000001 cycles: 216697707 heartbeat IPC: 1.127 cumulative IPC: 2.351 (Simulation time: 05 hr 07 min 19 sec)
Heartbeat CPU 0 instructions: 540000000 cycles: 226767324 heartbeat IPC: 0.9931 cumulative IPC: 2.287 (Simulation time: 05 hr 17 min 18 sec)
Heartbeat CPU 0 instructions: 550000004 cycles: 238550204 heartbeat IPC: 0.8487 cumulative IPC: 2.212 (Simulation time: 05 hr 28 min 22 sec)
Heartbeat CPU 0 instructions: 560000004 cycles: 242416760 heartbeat IPC: 2.586 cumulative IPC: 2.218 (Simulation time: 05 hr 33 min 56 sec)
Heartbeat CPU 0 instructions: 570000002 cycles: 245243136 heartbeat IPC: 3.538 cumulative IPC: 2.234 (Simulation time: 05 hr 38 min 50 sec)
Heartbeat CPU 0 instructions: 580000000 cycles: 248171404 heartbeat IPC: 3.415 cumulative IPC: 2.249 (Simulation time: 05 hr 43 min 45 sec)
Heartbeat CPU 0 instructions: 590000001 cycles: 251096805 heartbeat IPC: 3.418 cumulative IPC: 2.263 (Simulation time: 05 hr 48 min 41 sec)
Heartbeat CPU 0 instructions: 600000003 cycles: 253789170 heartbeat IPC: 3.714 cumulative IPC: 2.279 (Simulation time: 05 hr 53 min 39 sec)
Heartbeat CPU 0 instructions: 610000001 cycles: 256652973 heartbeat IPC: 3.492 cumulative IPC: 2.294 (Simulation time: 05 hr 58 min 52 sec)
Heartbeat CPU 0 instructions: 620000004 cycles: 259603870 heartbeat IPC: 3.389 cumulative IPC: 2.307 (Simulation time: 06 hr 03 min 50 sec)
Heartbeat CPU 0 instructions: 630000002 cycles: 262414799 heartbeat IPC: 3.558 cumulative IPC: 2.321 (Simulation time: 06 hr 08 min 56 sec)
Heartbeat CPU 0 instructions: 640000004 cycles: 265462762 heartbeat IPC: 3.281 cumulative IPC: 2.332 (Simulation time: 06 hr 13 min 56 sec)
Heartbeat CPU 0 instructions: 650000001 cycles: 268171629 heartbeat IPC: 3.692 cumulative IPC: 2.347 (Simulation time: 06 hr 19 min 07 sec)
Simulation finished CPU 0 instructions: 600000001 cycles: 255671568 cumulative IPC: 2.347 (Simulation time: 06 hr 19 min 07 sec)
Simulation complete CPU 0 instructions: 600000001 cycles: 255671568 cumulative IPC: 2.347 (Simulation time: 06 hr 19 min 07 sec)

ChampSim completed all CPUs

=== Simulation ===
CPU 0 runs traces/400.perlbench-50B.champsimtrace.xz
Region of Interest Statistics

CPU 0 cumulative IPC: 2.347 instructions: 600000001 cycles: 255671568
CPU 0 Branch Prediction Accuracy: 99.01% MPKI: 2.04 Average ROB Occupancy at Mispredict: 94.73
Branch type MPKI
BRANCH_DIRECT_JUMP: 0.0176
BRANCH_INDIRECT: 0.38
BRANCH_CONDITIONAL: 1.19
BRANCH_DIRECT_CALL: 0.0067
BRANCH_INDIRECT_CALL: 0.431
BRANCH_RETURN: 0.0161

LLC TOTAL        ACCESS:     511577 HIT:     140050 MISS:     371527
LLC LOAD         ACCESS:     377015 HIT:     101162 MISS:     275853
LLC RFO          ACCESS:      32650 HIT:       8184 MISS:      24466
LLC PREFETCH     ACCESS:          0 HIT:          0 MISS:          0
LLC WRITE        ACCESS:      83733 HIT:      28912 MISS:      54821
LLC TRANSLATION  ACCESS:      18179 HIT:       1792 MISS:      16387
LLC PREFETCH REQUESTED:          0 ISSUED:          0 USEFUL:          0 USELESS:          0
LLC AVERAGE MISS LATENCY: 531.5 cycles
cpu0_DTLB TOTAL        ACCESS:  133139301 HIT:  131786891 MISS:    1352410
cpu0_DTLB LOAD         ACCESS:  133139301 HIT:  131786891 MISS:    1352410
cpu0_DTLB RFO          ACCESS:          0 HIT:          0 MISS:          0
cpu0_DTLB PREFETCH     ACCESS:          0 HIT:          0 MISS:          0
cpu0_DTLB WRITE        ACCESS:          0 HIT:          0 MISS:          0
cpu0_DTLB TRANSLATION  ACCESS:          0 HIT:          0 MISS:          0
cpu0_DTLB PREFETCH REQUESTED:          0 ISSUED:          0 USEFUL:          0 USELESS:          0
cpu0_DTLB AVERAGE MISS LATENCY: 14.1 cycles
cpu0_ITLB TOTAL        ACCESS:    8994301 HIT:    8783958 MISS:     210343
cpu0_ITLB LOAD         ACCESS:    8994301 HIT:    8783958 MISS:     210343
cpu0_ITLB RFO          ACCESS:          0 HIT:          0 MISS:          0
cpu0_ITLB PREFETCH     ACCESS:          0 HIT:          0 MISS:          0
cpu0_ITLB WRITE        ACCESS:          0 HIT:          0 MISS:          0
cpu0_ITLB TRANSLATION  ACCESS:          0 HIT:          0 MISS:          0
cpu0_ITLB PREFETCH REQUESTED:          0 ISSUED:          0 USEFUL:          0 USELESS:          0
cpu0_ITLB AVERAGE MISS LATENCY: 3.364 cycles
cpu0_L1D TOTAL        ACCESS:  178207868 HIT:  175264779 MISS:    2943089
cpu0_L1D LOAD         ACCESS:   92691150 HIT:   90274783 MISS:    2416367
cpu0_L1D RFO          ACCESS:          0 HIT:          0 MISS:          0
cpu0_L1D PREFETCH     ACCESS:          0 HIT:          0 MISS:          0
cpu0_L1D WRITE        ACCESS:   85488194 HIT:   84987994 MISS:     500200
cpu0_L1D TRANSLATION  ACCESS:      28524 HIT:       2002 MISS:      26522
cpu0_L1D PREFETCH REQUESTED:          0 ISSUED:          0 USEFUL:          0 USELESS:          0
cpu0_L1D AVERAGE MISS LATENCY: 66.16 cycles
cpu0_L1I TOTAL        ACCESS:   10513801 HIT:    8613376 MISS:    1900425
cpu0_L1I LOAD         ACCESS:   10513801 HIT:    8613376 MISS:    1900425
cpu0_L1I RFO          ACCESS:          0 HIT:          0 MISS:          0
cpu0_L1I PREFETCH     ACCESS:          0 HIT:          0 MISS:          0
cpu0_L1I WRITE        ACCESS:          0 HIT:          0 MISS:          0
cpu0_L1I TRANSLATION  ACCESS:          0 HIT:          0 MISS:          0
cpu0_L1I PREFETCH REQUESTED:          0 ISSUED:          0 USEFUL:          0 USELESS:          0
cpu0_L1I AVERAGE MISS LATENCY: 13.47 cycles
cpu0_L2C TOTAL        ACCESS:    3236023 HIT:    2807215 MISS:     428808
cpu0_L2C LOAD         ACCESS:    2709175 HIT:    2332160 MISS:     377015
cpu0_L2C RFO          ACCESS:     135518 HIT:     102868 MISS:      32650
cpu0_L2C PREFETCH     ACCESS:          0 HIT:          0 MISS:          0
cpu0_L2C WRITE        ACCESS:     364885 HIT:     363921 MISS:        964
cpu0_L2C TRANSLATION  ACCESS:      26445 HIT:       8266 MISS:      18179
cpu0_L2C PREFETCH REQUESTED:          0 ISSUED:          0 USEFUL:          0 USELESS:          0
cpu0_L2C AVERAGE MISS LATENCY: 481.2 cycles
cpu0_STLB TOTAL        ACCESS:    1010079 HIT:     983393 MISS:      26686
cpu0_STLB LOAD         ACCESS:    1010079 HIT:     983393 MISS:      26686
cpu0_STLB RFO          ACCESS:          0 HIT:          0 MISS:          0
cpu0_STLB PREFETCH     ACCESS:          0 HIT:          0 MISS:          0
cpu0_STLB WRITE        ACCESS:          0 HIT:          0 MISS:          0
cpu0_STLB TRANSLATION  ACCESS:          0 HIT:          0 MISS:          0
cpu0_STLB PREFETCH REQUESTED:          0 ISSUED:          0 USEFUL:          0 USELESS:          0
cpu0_STLB AVERAGE MISS LATENCY: 521.4 cycles

DRAM Statistics

Channel 0 RQ ROW_BUFFER_HIT:      50373
  ROW_BUFFER_MISS:     266102
 AVG DBUS CONGESTED CYCLE: 3.853
WQ ROW_BUFFER_HIT: Channel 0 
  ROW_BUFFER_MISS:       7157
  FULL:      51448
