WARNING: physical memory size is smaller than virtual memory size.

*** ChampSim Multicore Out-of-Order Simulator ***
Warmup Instructions: 50000000
Simulation Instructions: 600000000
Number of CPUs: 1
Page size: 4096

Off-chip DRAM Size: 4 GiB Channels: 1 Width: 64-bit Data Race: 3200 MT/s
Heartbeat CPU 0 instructions: 10000001 cycles: 2500319 heartbeat IPC: 3.999 cumulative IPC: 3.999 (Simulation time: 00 hr 03 min 41 sec)
Heartbeat CPU 0 instructions: 20000002 cycles: 5037098 heartbeat IPC: 3.942 cumulative IPC: 3.971 (Simulation time: 00 hr 07 min 19 sec)
Heartbeat CPU 0 instructions: 30000002 cycles: 7537098 heartbeat IPC: 4 cumulative IPC: 3.98 (Simulation time: 00 hr 10 min 40 sec)
Heartbeat CPU 0 instructions: 40000002 cycles: 10037098 heartbeat IPC: 4 cumulative IPC: 3.985 (Simulation time: 00 hr 14 min 08 sec)
Heartbeat CPU 0 instructions: 50000002 cycles: 12537098 heartbeat IPC: 4 cumulative IPC: 3.988 (Simulation time: 00 hr 17 min 32 sec)
Warmup finished CPU 0 instructions: 50000002 cycles: 12537099 cumulative IPC: 3.988 (Simulation time: 00 hr 17 min 32 sec)
Warmup complete CPU 0 instructions: 50000002 cycles: 12537099 cumulative IPC: 3.988 (Simulation time: 00 hr 17 min 32 sec)
Heartbeat CPU 0 instructions: 60000000 cycles: 17152059 heartbeat IPC: 2.167 cumulative IPC: 2.167 (Simulation time: 00 hr 22 min 25 sec)
Heartbeat CPU 0 instructions: 70000004 cycles: 21424109 heartbeat IPC: 2.341 cumulative IPC: 2.25 (Simulation time: 00 hr 27 min 01 sec)
Heartbeat CPU 0 instructions: 80000001 cycles: 26019919 heartbeat IPC: 2.176 cumulative IPC: 2.225 (Simulation time: 00 hr 31 min 23 sec)
Heartbeat CPU 0 instructions: 90000001 cycles: 30138938 heartbeat IPC: 2.428 cumulative IPC: 2.272 (Simulation time: 00 hr 35 min 16 sec)
Heartbeat CPU 0 instructions: 100000000 cycles: 34186945 heartbeat IPC: 2.47 cumulative IPC: 2.309 (Simulation time: 00 hr 39 min 03 sec)
Heartbeat CPU 0 instructions: 110000000 cycles: 38416641 heartbeat IPC: 2.364 cumulative IPC: 2.318 (Simulation time: 00 hr 42 min 47 sec)
Heartbeat CPU 0 instructions: 120000001 cycles: 42427887 heartbeat IPC: 2.493 cumulative IPC: 2.342 (Simulation time: 00 hr 46 min 13 sec)
Heartbeat CPU 0 instructions: 130000001 cycles: 46160357 heartbeat IPC: 2.679 cumulative IPC: 2.379 (Simulation time: 00 hr 49 min 29 sec)
Heartbeat CPU 0 instructions: 140000001 cycles: 50326583 heartbeat IPC: 2.4 cumulative IPC: 2.382 (Simulation time: 00 hr 52 min 47 sec)
Heartbeat CPU 0 instructions: 150000001 cycles: 54531848 heartbeat IPC: 2.378 cumulative IPC: 2.381 (Simulation time: 00 hr 55 min 52 sec)
Heartbeat CPU 0 instructions: 160000004 cycles: 58955373 heartbeat IPC: 2.261 cumulative IPC: 2.37 (Simulation time: 00 hr 58 min 58 sec)
Heartbeat CPU 0 instructions: 170000000 cycles: 67816654 heartbeat IPC: 1.129 cumulative IPC: 2.171 (Simulation time: 01 hr 03 min 48 sec)
Heartbeat CPU 0 instructions: 180000004 cycles: 77493673 heartbeat IPC: 1.033 cumulative IPC: 2.001 (Simulation time: 01 hr 09 min 11 sec)
Heartbeat CPU 0 instructions: 190000001 cycles: 87729724 heartbeat IPC: 0.9769 cumulative IPC: 1.862 (Simulation time: 01 hr 14 min 52 sec)
Heartbeat CPU 0 instructions: 200000004 cycles: 91504919 heartbeat IPC: 2.649 cumulative IPC: 1.9 (Simulation time: 01 hr 17 min 46 sec)
Heartbeat CPU 0 instructions: 210000001 cycles: 95418318 heartbeat IPC: 2.555 cumulative IPC: 1.93 (Simulation time: 01 hr 20 min 45 sec)
Heartbeat CPU 0 instructions: 220000000 cycles: 99371630 heartbeat IPC: 2.53 cumulative IPC: 1.958 (Simulation time: 01 hr 23 min 43 sec)
Heartbeat CPU 0 instructions: 230000002 cycles: 104051963 heartbeat IPC: 2.137 cumulative IPC: 1.967 (Simulation time: 01 hr 26 min 55 sec)
Heartbeat CPU 0 instructions: 240000000 cycles: 108249806 heartbeat IPC: 2.382 cumulative IPC: 1.985 (Simulation time: 01 hr 29 min 53 sec)
Heartbeat CPU 0 instructions: 250000000 cycles: 112564593 heartbeat IPC: 2.318 cumulative IPC: 1.999 (Simulation time: 01 hr 33 min 01 sec)
Heartbeat CPU 0 instructions: 260000000 cycles: 116730421 heartbeat IPC: 2.4 cumulative IPC: 2.015 (Simulation time: 01 hr 35 min 58 sec)
Heartbeat CPU 0 instructions: 270000002 cycles: 120582088 heartbeat IPC: 2.596 cumulative IPC: 2.036 (Simulation time: 01 hr 38 min 58 sec)
Heartbeat CPU 0 instructions: 280000002 cycles: 124751934 heartbeat IPC: 2.398 cumulative IPC: 2.05 (Simulation time: 01 hr 42 min 09 sec)
Heartbeat CPU 0 instructions: 290000001 cycles: 128658772 heartbeat IPC: 2.56 cumulative IPC: 2.067 (Simulation time: 01 hr 45 min 15 sec)
Heartbeat CPU 0 instructions: 300000003 cycles: 132492294 heartbeat IPC: 2.609 cumulative IPC: 2.084 (Simulation time: 01 hr 48 min 16 sec)
Heartbeat CPU 0 instructions: 310000001 cycles: 136634803 heartbeat IPC: 2.414 cumulative IPC: 2.095 (Simulation time: 01 hr 51 min 22 sec)
Heartbeat CPU 0 instructions: 320000003 cycles: 140728381 heartbeat IPC: 2.443 cumulative IPC: 2.106 (Simulation time: 01 hr 54 min 24 sec)
Heartbeat CPU 0 instructions: 330000003 cycles: 145137136 heartbeat IPC: 2.268 cumulative IPC: 2.112 (Simulation time: 01 hr 57 min 37 sec)
Heartbeat CPU 0 instructions: 340000000 cycles: 154441953 heartbeat IPC: 1.075 cumulative IPC: 2.044 (Simulation time: 02 hr 02 min 51 sec)
Heartbeat CPU 0 instructions: 350000000 cycles: 164822850 heartbeat IPC: 0.9633 cumulative IPC: 1.97 (Simulation time: 02 hr 08 min 37 sec)
Heartbeat CPU 0 instructions: 360000004 cycles: 175298698 heartbeat IPC: 0.9546 cumulative IPC: 1.905 (Simulation time: 02 hr 14 min 23 sec)
Heartbeat CPU 0 instructions: 370000000 cycles: 178726655 heartbeat IPC: 2.917 cumulative IPC: 1.926 (Simulation time: 02 hr 17 min 13 sec)
Heartbeat CPU 0 instructions: 380000001 cycles: 182142368 heartbeat IPC: 2.928 cumulative IPC: 1.946 (Simulation time: 02 hr 20 min 13 sec)
Heartbeat CPU 0 instructions: 390000004 cycles: 185882505 heartbeat IPC: 2.674 cumulative IPC: 1.961 (Simulation time: 02 hr 23 min 11 sec)
Heartbeat CPU 0 instructions: 400000004 cycles: 189690814 heartbeat IPC: 2.626 cumulative IPC: 1.976 (Simulation time: 02 hr 26 min 11 sec)
Heartbeat CPU 0 instructions: 410000001 cycles: 193351434 heartbeat IPC: 2.732 cumulative IPC: 1.991 (Simulation time: 02 hr 29 min 04 sec)
Heartbeat CPU 0 instructions: 420000003 cycles: 197497022 heartbeat IPC: 2.412 cumulative IPC: 2 (Simulation time: 02 hr 32 min 09 sec)
Heartbeat CPU 0 instructions: 430000001 cycles: 201166684 heartbeat IPC: 2.725 cumulative IPC: 2.015 (Simulation time: 02 hr 35 min 08 sec)
Heartbeat CPU 0 instructions: 440000004 cycles: 205253274 heartbeat IPC: 2.447 cumulative IPC: 2.024 (Simulation time: 02 hr 38 min 11 sec)
Heartbeat CPU 0 instructions: 450000002 cycles: 208983257 heartbeat IPC: 2.681 cumulative IPC: 2.036 (Simulation time: 02 hr 41 min 05 sec)
Heartbeat CPU 0 instructions: 460000000 cycles: 212643270 heartbeat IPC: 2.732 cumulative IPC: 2.049 (Simulation time: 02 hr 44 min 00 sec)
Heartbeat CPU 0 instructions: 470000000 cycles: 216107902 heartbeat IPC: 2.886 cumulative IPC: 2.063 (Simulation time: 02 hr 46 min 45 sec)
Heartbeat CPU 0 instructions: 480000003 cycles: 220002317 heartbeat IPC: 2.568 cumulative IPC: 2.073 (Simulation time: 02 hr 49 min 41 sec)
Heartbeat CPU 0 instructions: 490000000 cycles: 223633034 heartbeat IPC: 2.754 cumulative IPC: 2.084 (Simulation time: 02 hr 52 min 39 sec)
Heartbeat CPU 0 instructions: 500000000 cycles: 227333144 heartbeat IPC: 2.703 cumulative IPC: 2.095 (Simulation time: 02 hr 55 min 36 sec)
Heartbeat CPU 0 instructions: 510000003 cycles: 231085616 heartbeat IPC: 2.665 cumulative IPC: 2.105 (Simulation time: 02 hr 58 min 37 sec)
Heartbeat CPU 0 instructions: 520000001 cycles: 234498854 heartbeat IPC: 2.93 cumulative IPC: 2.117 (Simulation time: 03 hr 01 min 31 sec)
Heartbeat CPU 0 instructions: 530000002 cycles: 238205731 heartbeat IPC: 2.698 cumulative IPC: 2.127 (Simulation time: 03 hr 04 min 23 sec)
Heartbeat CPU 0 instructions: 540000000 cycles: 241739704 heartbeat IPC: 2.83 cumulative IPC: 2.138 (Simulation time: 03 hr 07 min 08 sec)
Heartbeat CPU 0 instructions: 550000001 cycles: 245444947 heartbeat IPC: 2.699 cumulative IPC: 2.147 (Simulation time: 03 hr 10 min 00 sec)
Heartbeat CPU 0 instructions: 560000000 cycles: 249500706 heartbeat IPC: 2.466 cumulative IPC: 2.152 (Simulation time: 03 hr 13 min 07 sec)
Heartbeat CPU 0 instructions: 570000004 cycles: 255913892 heartbeat IPC: 1.559 cumulative IPC: 2.137 (Simulation time: 03 hr 17 min 06 sec)
Heartbeat CPU 0 instructions: 580000003 cycles: 266399284 heartbeat IPC: 0.9537 cumulative IPC: 2.088 (Simulation time: 03 hr 22 min 40 sec)
Heartbeat CPU 0 instructions: 590000002 cycles: 279975720 heartbeat IPC: 0.7366 cumulative IPC: 2.019 (Simulation time: 03 hr 29 min 33 sec)
Heartbeat CPU 0 instructions: 600000000 cycles: 283793973 heartbeat IPC: 2.619 cumulative IPC: 2.028 (Simulation time: 03 hr 32 min 23 sec)
Heartbeat CPU 0 instructions: 610000000 cycles: 287647380 heartbeat IPC: 2.595 cumulative IPC: 2.036 (Simulation time: 03 hr 35 min 12 sec)
Heartbeat CPU 0 instructions: 620000001 cycles: 291076490 heartbeat IPC: 2.916 cumulative IPC: 2.046 (Simulation time: 03 hr 37 min 55 sec)
Heartbeat CPU 0 instructions: 630000002 cycles: 295349610 heartbeat IPC: 2.34 cumulative IPC: 2.051 (Simulation time: 03 hr 40 min 51 sec)
Heartbeat CPU 0 instructions: 640000001 cycles: 299245441 heartbeat IPC: 2.567 cumulative IPC: 2.058 (Simulation time: 03 hr 43 min 47 sec)
Heartbeat CPU 0 instructions: 650000000 cycles: 302998603 heartbeat IPC: 2.664 cumulative IPC: 2.066 (Simulation time: 03 hr 46 min 36 sec)
Simulation finished CPU 0 instructions: 600000001 cycles: 290461506 cumulative IPC: 2.066 (Simulation time: 03 hr 46 min 36 sec)
Simulation complete CPU 0 instructions: 600000001 cycles: 290461506 cumulative IPC: 2.066 (Simulation time: 03 hr 46 min 36 sec)

ChampSim completed all CPUs

=== Simulation ===
CPU 0 runs traces/400.perlbench-41B.champsimtrace.xz
Region of Interest Statistics

CPU 0 cumulative IPC: 2.066 instructions: 600000001 cycles: 290461506
CPU 0 Branch Prediction Accuracy: 96.56% MPKI: 7.112 Average ROB Occupancy at Mispredict: 47.14
Branch type MPKI
BRANCH_DIRECT_JUMP: 0.0123
BRANCH_INDIRECT: 0.323
BRANCH_CONDITIONAL: 6.56
BRANCH_DIRECT_CALL: 0.0043
BRANCH_INDIRECT_CALL: 0.2
BRANCH_RETURN: 0.00828

LLC TOTAL        ACCESS:     721849 HIT:     308667 MISS:     413182
LLC LOAD         ACCESS:     308521 HIT:     138648 MISS:     169873
LLC RFO          ACCESS:      25212 HIT:      10947 MISS:      14265
LLC PREFETCH     ACCESS:     308521 HIT:     127880 MISS:     180641
LLC WRITE        ACCESS:      63964 HIT:      30325 MISS:      33639
LLC TRANSLATION  ACCESS:      15631 HIT:        867 MISS:      14764
LLC PREFETCH REQUESTED:     308521 ISSUED:     308521 USEFUL:      43303 USELESS:      98624
LLC AVERAGE MISS LATENCY: 542.4 cycles
cpu0_DTLB TOTAL        ACCESS:  141882950 HIT:  141197268 MISS:     685682
cpu0_DTLB LOAD         ACCESS:  141882950 HIT:  141197268 MISS:     685682
cpu0_DTLB RFO          ACCESS:          0 HIT:          0 MISS:          0
cpu0_DTLB PREFETCH     ACCESS:          0 HIT:          0 MISS:          0
cpu0_DTLB WRITE        ACCESS:          0 HIT:          0 MISS:          0
cpu0_DTLB TRANSLATION  ACCESS:          0 HIT:          0 MISS:          0
cpu0_DTLB PREFETCH REQUESTED:          0 ISSUED:          0 USEFUL:          0 USELESS:          0
cpu0_DTLB AVERAGE MISS LATENCY: 20.18 cycles
cpu0_ITLB TOTAL        ACCESS:    4860341 HIT:    4807048 MISS:      53293
cpu0_ITLB LOAD         ACCESS:    4860341 HIT:    4807048 MISS:      53293
cpu0_ITLB RFO          ACCESS:          0 HIT:          0 MISS:          0
cpu0_ITLB PREFETCH     ACCESS:          0 HIT:          0 MISS:          0
cpu0_ITLB WRITE        ACCESS:          0 HIT:          0 MISS:          0
cpu0_ITLB TRANSLATION  ACCESS:          0 HIT:          0 MISS:          0
cpu0_ITLB PREFETCH REQUESTED:          0 ISSUED:          0 USEFUL:          0 USELESS:          0
cpu0_ITLB AVERAGE MISS LATENCY: 8.866 cycles
cpu0_L1D TOTAL        ACCESS:  188565364 HIT:  187253169 MISS:    1312195
cpu0_L1D LOAD         ACCESS:  105198212 HIT:  104186848 MISS:    1011364
cpu0_L1D RFO          ACCESS:          0 HIT:          0 MISS:          0
cpu0_L1D PREFETCH     ACCESS:          0 HIT:          0 MISS:          0
cpu0_L1D WRITE        ACCESS:   83342680 HIT:   83064716 MISS:     277964
cpu0_L1D TRANSLATION  ACCESS:      24472 HIT:       1605 MISS:      22867
cpu0_L1D PREFETCH REQUESTED:          0 ISSUED:          0 USEFUL:          0 USELESS:          0
cpu0_L1D AVERAGE MISS LATENCY: 99.24 cycles
cpu0_L1I TOTAL        ACCESS:    5597703 HIT:    4853951 MISS:     743752
cpu0_L1I LOAD         ACCESS:    5597703 HIT:    4853951 MISS:     743752
cpu0_L1I RFO          ACCESS:          0 HIT:          0 MISS:          0
cpu0_L1I PREFETCH     ACCESS:          0 HIT:          0 MISS:          0
cpu0_L1I WRITE        ACCESS:          0 HIT:          0 MISS:          0
cpu0_L1I TRANSLATION  ACCESS:          0 HIT:          0 MISS:          0
cpu0_L1I PREFETCH REQUESTED:          0 ISSUED:          0 USEFUL:          0 USELESS:          0
cpu0_L1I AVERAGE MISS LATENCY: 15.64 cycles
cpu0_L2C TOTAL        ACCESS:    1380931 HIT:    1030669 MISS:     350262
cpu0_L2C LOAD         ACCESS:    1124789 HIT:     816268 MISS:     308521
cpu0_L2C RFO          ACCESS:      63777 HIT:      38565 MISS:      25212
cpu0_L2C PREFETCH     ACCESS:          0 HIT:          0 MISS:          0
cpu0_L2C WRITE        ACCESS:     169574 HIT:     168676 MISS:        898
cpu0_L2C TRANSLATION  ACCESS:      22791 HIT:       7160 MISS:      15631
cpu0_L2C PREFETCH REQUESTED:          0 ISSUED:          0 USEFUL:          0 USELESS:          0
cpu0_L2C AVERAGE MISS LATENCY: 382.3 cycles
cpu0_STLB TOTAL        ACCESS:     507170 HIT:     484376 MISS:      22794
cpu0_STLB LOAD         ACCESS:     507170 HIT:     484376 MISS:      22794
cpu0_STLB RFO          ACCESS:          0 HIT:          0 MISS:          0
cpu0_STLB PREFETCH     ACCESS:          0 HIT:          0 MISS:          0
cpu0_STLB WRITE        ACCESS:          0 HIT:          0 MISS:          0
cpu0_STLB TRANSLATION  ACCESS:          0 HIT:          0 MISS:          0
cpu0_STLB PREFETCH REQUESTED:          0 ISSUED:          0 USEFUL:          0 USELESS:          0
cpu0_STLB AVERAGE MISS LATENCY: 495 cycles

DRAM Statistics

Channel 0 RQ ROW_BUFFER_HIT:      47465
  ROW_BUFFER_MISS:     279888
 AVG DBUS CONGESTED CYCLE: 3.882
WQ ROW_BUFFER_HIT: Channel 0 
  ROW_BUFFER_MISS:       6538
  FULL:      31613
