WARNING: physical memory size is smaller than virtual memory size.

*** ChampSim Multicore Out-of-Order Simulator ***
Warmup Instructions: 50000000
Simulation Instructions: 600000000
Number of CPUs: 1
Page size: 4096

Off-chip DRAM Size: 4 GiB Channels: 1 Width: 64-bit Data Race: 3200 MT/s
Heartbeat CPU 0 instructions: 10000000 cycles: 2500061 heartbeat IPC: 4 cumulative IPC: 4 (Simulation time: 00 hr 01 min 17 sec)
Heartbeat CPU 0 instructions: 20000000 cycles: 5000061 heartbeat IPC: 4 cumulative IPC: 4 (Simulation time: 00 hr 02 min 59 sec)
Heartbeat CPU 0 instructions: 30000000 cycles: 7500061 heartbeat IPC: 4 cumulative IPC: 4 (Simulation time: 00 hr 05 min 06 sec)
Heartbeat CPU 0 instructions: 40000000 cycles: 10000061 heartbeat IPC: 4 cumulative IPC: 4 (Simulation time: 00 hr 07 min 36 sec)
Heartbeat CPU 0 instructions: 50000000 cycles: 12500061 heartbeat IPC: 4 cumulative IPC: 4 (Simulation time: 00 hr 10 min 35 sec)
Warmup finished CPU 0 instructions: 50000000 cycles: 12500062 cumulative IPC: 4 (Simulation time: 00 hr 10 min 35 sec)
Warmup complete CPU 0 instructions: 50000000 cycles: 12500062 cumulative IPC: 4 (Simulation time: 00 hr 10 min 35 sec)
Heartbeat CPU 0 instructions: 60000002 cycles: 16906761 heartbeat IPC: 2.269 cumulative IPC: 2.269 (Simulation time: 00 hr 15 min 45 sec)
Heartbeat CPU 0 instructions: 70000003 cycles: 21887096 heartbeat IPC: 2.008 cumulative IPC: 2.131 (Simulation time: 00 hr 20 min 52 sec)
Heartbeat CPU 0 instructions: 80000001 cycles: 27228553 heartbeat IPC: 1.872 cumulative IPC: 2.037 (Simulation time: 00 hr 26 min 16 sec)
Heartbeat CPU 0 instructions: 90000000 cycles: 31524776 heartbeat IPC: 2.328 cumulative IPC: 2.103 (Simulation time: 00 hr 31 min 08 sec)
Heartbeat CPU 0 instructions: 100000003 cycles: 36376281 heartbeat IPC: 2.061 cumulative IPC: 2.094 (Simulation time: 00 hr 36 min 17 sec)
Heartbeat CPU 0 instructions: 110000002 cycles: 41243779 heartbeat IPC: 2.054 cumulative IPC: 2.087 (Simulation time: 00 hr 41 min 20 sec)
Heartbeat CPU 0 instructions: 120000001 cycles: 46237023 heartbeat IPC: 2.003 cumulative IPC: 2.075 (Simulation time: 00 hr 46 min 32 sec)
Heartbeat CPU 0 instructions: 130000003 cycles: 50803754 heartbeat IPC: 2.19 cumulative IPC: 2.089 (Simulation time: 00 hr 51 min 27 sec)
Heartbeat CPU 0 instructions: 140000002 cycles: 55691442 heartbeat IPC: 2.046 cumulative IPC: 2.084 (Simulation time: 00 hr 56 min 36 sec)
Heartbeat CPU 0 instructions: 150000001 cycles: 60355909 heartbeat IPC: 2.144 cumulative IPC: 2.09 (Simulation time: 01 hr 01 min 36 sec)
Heartbeat CPU 0 instructions: 160000000 cycles: 64991741 heartbeat IPC: 2.157 cumulative IPC: 2.096 (Simulation time: 01 hr 06 min 33 sec)
Heartbeat CPU 0 instructions: 170000000 cycles: 70320354 heartbeat IPC: 1.877 cumulative IPC: 2.075 (Simulation time: 01 hr 11 min 57 sec)
Heartbeat CPU 0 instructions: 180000001 cycles: 76037682 heartbeat IPC: 1.749 cumulative IPC: 2.046 (Simulation time: 01 hr 17 min 35 sec)
Heartbeat CPU 0 instructions: 190000002 cycles: 80505582 heartbeat IPC: 2.238 cumulative IPC: 2.059 (Simulation time: 01 hr 22 min 32 sec)
Heartbeat CPU 0 instructions: 200000002 cycles: 85404134 heartbeat IPC: 2.041 cumulative IPC: 2.057 (Simulation time: 01 hr 27 min 41 sec)
Heartbeat CPU 0 instructions: 210000000 cycles: 90405324 heartbeat IPC: 2 cumulative IPC: 2.054 (Simulation time: 01 hr 32 min 50 sec)
Heartbeat CPU 0 instructions: 220000001 cycles: 95326197 heartbeat IPC: 2.032 cumulative IPC: 2.052 (Simulation time: 01 hr 38 min 00 sec)
Heartbeat CPU 0 instructions: 230000002 cycles: 100569675 heartbeat IPC: 1.907 cumulative IPC: 2.044 (Simulation time: 01 hr 43 min 15 sec)
Heartbeat CPU 0 instructions: 240000001 cycles: 105531146 heartbeat IPC: 2.016 cumulative IPC: 2.042 (Simulation time: 01 hr 48 min 25 sec)
Heartbeat CPU 0 instructions: 250000003 cycles: 110705210 heartbeat IPC: 1.933 cumulative IPC: 2.037 (Simulation time: 01 hr 53 min 35 sec)
Heartbeat CPU 0 instructions: 260000001 cycles: 115561909 heartbeat IPC: 2.059 cumulative IPC: 2.038 (Simulation time: 01 hr 58 min 42 sec)
Heartbeat CPU 0 instructions: 270000000 cycles: 123260707 heartbeat IPC: 1.299 cumulative IPC: 1.986 (Simulation time: 02 hr 05 min 38 sec)
Heartbeat CPU 0 instructions: 280000000 cycles: 135115641 heartbeat IPC: 0.8435 cumulative IPC: 1.876 (Simulation time: 02 hr 15 min 27 sec)
Heartbeat CPU 0 instructions: 290000001 cycles: 145467662 heartbeat IPC: 0.966 cumulative IPC: 1.805 (Simulation time: 02 hr 24 min 24 sec)
Heartbeat CPU 0 instructions: 300000003 cycles: 152978898 heartbeat IPC: 1.331 cumulative IPC: 1.78 (Simulation time: 02 hr 31 min 39 sec)
Heartbeat CPU 0 instructions: 310000004 cycles: 164185332 heartbeat IPC: 0.8923 cumulative IPC: 1.714 (Simulation time: 02 hr 41 min 07 sec)
Heartbeat CPU 0 instructions: 320000004 cycles: 169865602 heartbeat IPC: 1.76 cumulative IPC: 1.716 (Simulation time: 02 hr 47 min 11 sec)
Heartbeat CPU 0 instructions: 330000000 cycles: 175156235 heartbeat IPC: 1.89 cumulative IPC: 1.721 (Simulation time: 02 hr 52 min 44 sec)
Heartbeat CPU 0 instructions: 340000001 cycles: 180341819 heartbeat IPC: 1.928 cumulative IPC: 1.728 (Simulation time: 02 hr 58 min 06 sec)
Heartbeat CPU 0 instructions: 350000000 cycles: 185747322 heartbeat IPC: 1.85 cumulative IPC: 1.732 (Simulation time: 03 hr 03 min 37 sec)
Heartbeat CPU 0 instructions: 360000003 cycles: 190916942 heartbeat IPC: 1.934 cumulative IPC: 1.738 (Simulation time: 03 hr 09 min 03 sec)
Heartbeat CPU 0 instructions: 370000001 cycles: 196020207 heartbeat IPC: 1.96 cumulative IPC: 1.744 (Simulation time: 03 hr 14 min 25 sec)
Heartbeat CPU 0 instructions: 380000004 cycles: 201395250 heartbeat IPC: 1.86 cumulative IPC: 1.747 (Simulation time: 03 hr 19 min 56 sec)
Heartbeat CPU 0 instructions: 390000002 cycles: 206847711 heartbeat IPC: 1.834 cumulative IPC: 1.749 (Simulation time: 03 hr 25 min 34 sec)
Heartbeat CPU 0 instructions: 400000000 cycles: 212354333 heartbeat IPC: 1.816 cumulative IPC: 1.751 (Simulation time: 03 hr 31 min 10 sec)
Heartbeat CPU 0 instructions: 410000000 cycles: 220576661 heartbeat IPC: 1.216 cumulative IPC: 1.73 (Simulation time: 03 hr 38 min 37 sec)
Heartbeat CPU 0 instructions: 420000001 cycles: 231978974 heartbeat IPC: 0.877 cumulative IPC: 1.686 (Simulation time: 03 hr 48 min 19 sec)
Heartbeat CPU 0 instructions: 430000000 cycles: 239600250 heartbeat IPC: 1.312 cumulative IPC: 1.673 (Simulation time: 03 hr 55 min 44 sec)
Heartbeat CPU 0 instructions: 440000002 cycles: 247104618 heartbeat IPC: 1.333 cumulative IPC: 1.662 (Simulation time: 04 hr 03 min 02 sec)
Heartbeat CPU 0 instructions: 450000000 cycles: 253929615 heartbeat IPC: 1.465 cumulative IPC: 1.657 (Simulation time: 04 hr 09 min 51 sec)
Heartbeat CPU 0 instructions: 460000002 cycles: 265052232 heartbeat IPC: 0.8991 cumulative IPC: 1.623 (Simulation time: 04 hr 19 min 17 sec)
Heartbeat CPU 0 instructions: 470000000 cycles: 275036109 heartbeat IPC: 1.002 cumulative IPC: 1.6 (Simulation time: 04 hr 27 min 54 sec)
Heartbeat CPU 0 instructions: 480000000 cycles: 280518407 heartbeat IPC: 1.824 cumulative IPC: 1.604 (Simulation time: 04 hr 33 min 26 sec)
Heartbeat CPU 0 instructions: 490000001 cycles: 286273547 heartbeat IPC: 1.738 cumulative IPC: 1.607 (Simulation time: 04 hr 39 min 08 sec)
Heartbeat CPU 0 instructions: 500000002 cycles: 291924761 heartbeat IPC: 1.77 cumulative IPC: 1.61 (Simulation time: 04 hr 44 min 52 sec)
Heartbeat CPU 0 instructions: 510000000 cycles: 297630973 heartbeat IPC: 1.752 cumulative IPC: 1.613 (Simulation time: 04 hr 50 min 37 sec)
Heartbeat CPU 0 instructions: 520000000 cycles: 303425291 heartbeat IPC: 1.726 cumulative IPC: 1.616 (Simulation time: 04 hr 56 min 21 sec)
Heartbeat CPU 0 instructions: 530000001 cycles: 315141024 heartbeat IPC: 0.8536 cumulative IPC: 1.586 (Simulation time: 05 hr 06 min 02 sec)
Heartbeat CPU 0 instructions: 540000000 cycles: 326075708 heartbeat IPC: 0.9145 cumulative IPC: 1.563 (Simulation time: 05 hr 15 min 28 sec)
Heartbeat CPU 0 instructions: 550000002 cycles: 339090901 heartbeat IPC: 0.7683 cumulative IPC: 1.531 (Simulation time: 05 hr 26 min 01 sec)
Heartbeat CPU 0 instructions: 560000004 cycles: 343959337 heartbeat IPC: 2.054 cumulative IPC: 1.539 (Simulation time: 05 hr 31 min 18 sec)
Heartbeat CPU 0 instructions: 570000001 cycles: 348368800 heartbeat IPC: 2.268 cumulative IPC: 1.548 (Simulation time: 05 hr 36 min 15 sec)
Heartbeat CPU 0 instructions: 580000003 cycles: 352609694 heartbeat IPC: 2.358 cumulative IPC: 1.558 (Simulation time: 05 hr 41 min 22 sec)
Heartbeat CPU 0 instructions: 590000001 cycles: 357510971 heartbeat IPC: 2.04 cumulative IPC: 1.565 (Simulation time: 05 hr 46 min 59 sec)
Heartbeat CPU 0 instructions: 600000003 cycles: 362151989 heartbeat IPC: 2.155 cumulative IPC: 1.573 (Simulation time: 05 hr 52 min 22 sec)
Heartbeat CPU 0 instructions: 610000001 cycles: 367012096 heartbeat IPC: 2.058 cumulative IPC: 1.58 (Simulation time: 05 hr 57 min 46 sec)
Heartbeat CPU 0 instructions: 620000000 cycles: 372079876 heartbeat IPC: 1.973 cumulative IPC: 1.585 (Simulation time: 06 hr 03 min 24 sec)
Heartbeat CPU 0 instructions: 630000002 cycles: 376324904 heartbeat IPC: 2.356 cumulative IPC: 1.594 (Simulation time: 06 hr 08 min 36 sec)
Heartbeat CPU 0 instructions: 640000004 cycles: 381645731 heartbeat IPC: 1.879 cumulative IPC: 1.598 (Simulation time: 06 hr 14 min 27 sec)
Heartbeat CPU 0 instructions: 650000001 cycles: 386410368 heartbeat IPC: 2.099 cumulative IPC: 1.605 (Simulation time: 06 hr 20 min 06 sec)
Simulation finished CPU 0 instructions: 600000001 cycles: 373910307 cumulative IPC: 1.605 (Simulation time: 06 hr 20 min 06 sec)
Simulation complete CPU 0 instructions: 600000001 cycles: 373910307 cumulative IPC: 1.605 (Simulation time: 06 hr 20 min 06 sec)

ChampSim completed all CPUs

=== Simulation ===
CPU 0 runs traces/400.perlbench-50B.champsimtrace.xz
Region of Interest Statistics

CPU 0 cumulative IPC: 1.605 instructions: 600000001 cycles: 373910307
CPU 0 Branch Prediction Accuracy: 93.83% MPKI: 12.71 Average ROB Occupancy at Mispredict: 29.34
Branch type MPKI
BRANCH_DIRECT_JUMP: 0.0176
BRANCH_INDIRECT: 0.38
BRANCH_CONDITIONAL: 11.9
BRANCH_DIRECT_CALL: 0.0067
BRANCH_INDIRECT_CALL: 0.431
BRANCH_RETURN: 0.0161

LLC TOTAL        ACCESS:     567270 HIT:     235539 MISS:     331731
LLC LOAD         ACCESS:     376463 HIT:     114090 MISS:     262373
LLC RFO          ACCESS:      32643 HIT:      12240 MISS:      20403
LLC PREFETCH     ACCESS:      55774 HIT:      26848 MISS:      28926
LLC WRITE        ACCESS:      84275 HIT:      76647 MISS:       7628
LLC TRANSLATION  ACCESS:      18115 HIT:       5714 MISS:      12401
LLC PREFETCH REQUESTED:      55774 ISSUED:      55774 USEFUL:      17337 USELESS:       7652
LLC AVERAGE MISS LATENCY: 534.6 cycles
cpu0_DTLB TOTAL        ACCESS:  156748430 HIT:  155448206 MISS:    1300224
cpu0_DTLB LOAD         ACCESS:  156748430 HIT:  155448206 MISS:    1300224
cpu0_DTLB RFO          ACCESS:          0 HIT:          0 MISS:          0
cpu0_DTLB PREFETCH     ACCESS:          0 HIT:          0 MISS:          0
cpu0_DTLB WRITE        ACCESS:          0 HIT:          0 MISS:          0
cpu0_DTLB TRANSLATION  ACCESS:          0 HIT:          0 MISS:          0
cpu0_DTLB PREFETCH REQUESTED:          0 ISSUED:          0 USEFUL:          0 USELESS:          0
cpu0_DTLB AVERAGE MISS LATENCY: 12.29 cycles
cpu0_ITLB TOTAL        ACCESS:    8933575 HIT:    8734731 MISS:     198844
cpu0_ITLB LOAD         ACCESS:    8933575 HIT:    8734731 MISS:     198844
cpu0_ITLB RFO          ACCESS:          0 HIT:          0 MISS:          0
cpu0_ITLB PREFETCH     ACCESS:          0 HIT:          0 MISS:          0
cpu0_ITLB WRITE        ACCESS:          0 HIT:          0 MISS:          0
cpu0_ITLB TRANSLATION  ACCESS:          0 HIT:          0 MISS:          0
cpu0_ITLB PREFETCH REQUESTED:          0 ISSUED:          0 USEFUL:          0 USELESS:          0
cpu0_ITLB AVERAGE MISS LATENCY: 3.271 cycles
cpu0_L1D TOTAL        ACCESS:  203622337 HIT:  200778025 MISS:    2844312
cpu0_L1D LOAD         ACCESS:  117946028 HIT:  115610633 MISS:    2335395
cpu0_L1D RFO          ACCESS:          0 HIT:          0 MISS:          0
cpu0_L1D PREFETCH     ACCESS:          0 HIT:          0 MISS:          0
cpu0_L1D WRITE        ACCESS:   85647770 HIT:   85165400 MISS:     482370
cpu0_L1D TRANSLATION  ACCESS:      28539 HIT:       1992 MISS:      26547
cpu0_L1D PREFETCH REQUESTED:          0 ISSUED:          0 USEFUL:          0 USELESS:          0
cpu0_L1D AVERAGE MISS LATENCY: 60.23 cycles
cpu0_L1I TOTAL        ACCESS:   10372238 HIT:    8573172 MISS:    1799066
cpu0_L1I LOAD         ACCESS:   10372238 HIT:    8573172 MISS:    1799066
cpu0_L1I RFO          ACCESS:          0 HIT:          0 MISS:          0
cpu0_L1I PREFETCH     ACCESS:          0 HIT:          0 MISS:          0
cpu0_L1I WRITE        ACCESS:          0 HIT:          0 MISS:          0
cpu0_L1I TRANSLATION  ACCESS:          0 HIT:          0 MISS:          0
cpu0_L1I PREFETCH REQUESTED:          0 ISSUED:          0 USEFUL:          0 USELESS:          0
cpu0_L1I AVERAGE MISS LATENCY: 11.02 cycles
cpu0_L2C TOTAL        ACCESS:    3235460 HIT:    2807297 MISS:     428163
cpu0_L2C LOAD         ACCESS:    2711770 HIT:    2335307 MISS:     376463
cpu0_L2C RFO          ACCESS:     133702 HIT:     101059 MISS:      32643
cpu0_L2C PREFETCH     ACCESS:          0 HIT:          0 MISS:          0
cpu0_L2C WRITE        ACCESS:     363524 HIT:     362582 MISS:        942
cpu0_L2C TRANSLATION  ACCESS:      26464 HIT:       8349 MISS:      18115
cpu0_L2C PREFETCH REQUESTED:          0 ISSUED:          0 USEFUL:          0 USELESS:          0
cpu0_L2C AVERAGE MISS LATENCY: 394.8 cycles
cpu0_STLB TOTAL        ACCESS:    1009195 HIT:     982504 MISS:      26691
cpu0_STLB LOAD         ACCESS:    1009195 HIT:     982504 MISS:      26691
cpu0_STLB RFO          ACCESS:          0 HIT:          0 MISS:          0
cpu0_STLB PREFETCH     ACCESS:          0 HIT:          0 MISS:          0
cpu0_STLB WRITE        ACCESS:          0 HIT:          0 MISS:          0
cpu0_STLB TRANSLATION  ACCESS:          0 HIT:          0 MISS:          0
cpu0_STLB PREFETCH REQUESTED:          0 ISSUED:          0 USEFUL:          0 USELESS:          0
cpu0_STLB AVERAGE MISS LATENCY: 380.1 cycles

DRAM Statistics

Channel 0 RQ ROW_BUFFER_HIT:      61013
  ROW_BUFFER_MISS:     257915
 AVG DBUS CONGESTED CYCLE: 3.811
WQ ROW_BUFFER_HIT: Channel 0 
  ROW_BUFFER_MISS:       8834
  FULL:      37350
