WARNING: physical memory size is smaller than virtual memory size.

*** ChampSim Multicore Out-of-Order Simulator ***
Warmup Instructions: 50000000
Simulation Instructions: 600000000
Number of CPUs: 1
Page size: 4096

Off-chip DRAM Size: 4 GiB Channels: 1 Width: 64-bit Data Race: 3200 MT/s
Heartbeat CPU 0 instructions: 10000000 cycles: 2500061 heartbeat IPC: 4 cumulative IPC: 4 (Simulation time: 00 hr 02 min 49 sec)
Heartbeat CPU 0 instructions: 20000000 cycles: 5000061 heartbeat IPC: 4 cumulative IPC: 4 (Simulation time: 00 hr 06 min 07 sec)
Heartbeat CPU 0 instructions: 30000000 cycles: 7500061 heartbeat IPC: 4 cumulative IPC: 4 (Simulation time: 00 hr 09 min 47 sec)
Heartbeat CPU 0 instructions: 40000000 cycles: 10000061 heartbeat IPC: 4 cumulative IPC: 4 (Simulation time: 00 hr 13 min 07 sec)
Heartbeat CPU 0 instructions: 50000000 cycles: 12500061 heartbeat IPC: 4 cumulative IPC: 4 (Simulation time: 00 hr 16 min 31 sec)
Warmup finished CPU 0 instructions: 50000000 cycles: 12500062 cumulative IPC: 4 (Simulation time: 00 hr 16 min 31 sec)
Warmup complete CPU 0 instructions: 50000000 cycles: 12500062 cumulative IPC: 4 (Simulation time: 00 hr 16 min 31 sec)
Heartbeat CPU 0 instructions: 60000002 cycles: 16435171 heartbeat IPC: 2.541 cumulative IPC: 2.541 (Simulation time: 00 hr 21 min 11 sec)
Heartbeat CPU 0 instructions: 70000003 cycles: 20748499 heartbeat IPC: 2.318 cumulative IPC: 2.425 (Simulation time: 00 hr 26 min 00 sec)
Heartbeat CPU 0 instructions: 80000003 cycles: 25211542 heartbeat IPC: 2.241 cumulative IPC: 2.36 (Simulation time: 00 hr 30 min 54 sec)
Heartbeat CPU 0 instructions: 90000000 cycles: 28901427 heartbeat IPC: 2.71 cumulative IPC: 2.439 (Simulation time: 00 hr 35 min 23 sec)
Heartbeat CPU 0 instructions: 100000003 cycles: 32794853 heartbeat IPC: 2.568 cumulative IPC: 2.464 (Simulation time: 00 hr 39 min 59 sec)
Heartbeat CPU 0 instructions: 110000002 cycles: 36885725 heartbeat IPC: 2.444 cumulative IPC: 2.46 (Simulation time: 00 hr 44 min 37 sec)
Heartbeat CPU 0 instructions: 120000001 cycles: 40598644 heartbeat IPC: 2.693 cumulative IPC: 2.491 (Simulation time: 00 hr 49 min 06 sec)
Heartbeat CPU 0 instructions: 130000003 cycles: 44363209 heartbeat IPC: 2.656 cumulative IPC: 2.511 (Simulation time: 00 hr 53 min 38 sec)
Heartbeat CPU 0 instructions: 140000002 cycles: 48488199 heartbeat IPC: 2.424 cumulative IPC: 2.501 (Simulation time: 00 hr 58 min 20 sec)
Heartbeat CPU 0 instructions: 150000001 cycles: 52532064 heartbeat IPC: 2.473 cumulative IPC: 2.498 (Simulation time: 01 hr 02 min 56 sec)
Heartbeat CPU 0 instructions: 160000000 cycles: 56181064 heartbeat IPC: 2.74 cumulative IPC: 2.518 (Simulation time: 01 hr 07 min 23 sec)
Heartbeat CPU 0 instructions: 170000001 cycles: 60346253 heartbeat IPC: 2.401 cumulative IPC: 2.508 (Simulation time: 01 hr 12 min 07 sec)
Heartbeat CPU 0 instructions: 180000001 cycles: 63801912 heartbeat IPC: 2.894 cumulative IPC: 2.534 (Simulation time: 01 hr 16 min 29 sec)
Heartbeat CPU 0 instructions: 190000002 cycles: 67379597 heartbeat IPC: 2.795 cumulative IPC: 2.551 (Simulation time: 01 hr 20 min 59 sec)
Heartbeat CPU 0 instructions: 200000002 cycles: 71150177 heartbeat IPC: 2.652 cumulative IPC: 2.558 (Simulation time: 01 hr 25 min 34 sec)
Heartbeat CPU 0 instructions: 210000000 cycles: 74785653 heartbeat IPC: 2.751 cumulative IPC: 2.569 (Simulation time: 01 hr 30 min 01 sec)
Heartbeat CPU 0 instructions: 220000001 cycles: 78654748 heartbeat IPC: 2.585 cumulative IPC: 2.57 (Simulation time: 01 hr 34 min 35 sec)
Heartbeat CPU 0 instructions: 230000002 cycles: 82492727 heartbeat IPC: 2.606 cumulative IPC: 2.572 (Simulation time: 01 hr 39 min 09 sec)
Heartbeat CPU 0 instructions: 240000001 cycles: 86695929 heartbeat IPC: 2.379 cumulative IPC: 2.561 (Simulation time: 01 hr 43 min 56 sec)
Heartbeat CPU 0 instructions: 250000003 cycles: 91258538 heartbeat IPC: 2.192 cumulative IPC: 2.539 (Simulation time: 01 hr 48 min 52 sec)
Heartbeat CPU 0 instructions: 260000000 cycles: 95057392 heartbeat IPC: 2.632 cumulative IPC: 2.544 (Simulation time: 01 hr 53 min 25 sec)
Heartbeat CPU 0 instructions: 270000003 cycles: 101931285 heartbeat IPC: 1.455 cumulative IPC: 2.46 (Simulation time: 01 hr 59 min 57 sec)
Heartbeat CPU 0 instructions: 280000000 cycles: 113916609 heartbeat IPC: 0.8344 cumulative IPC: 2.268 (Simulation time: 02 hr 09 min 45 sec)
Heartbeat CPU 0 instructions: 290000000 cycles: 125268324 heartbeat IPC: 0.8809 cumulative IPC: 2.128 (Simulation time: 02 hr 19 min 18 sec)
Heartbeat CPU 0 instructions: 300000003 cycles: 132988464 heartbeat IPC: 1.295 cumulative IPC: 2.075 (Simulation time: 02 hr 26 min 44 sec)
Heartbeat CPU 0 instructions: 310000004 cycles: 144676789 heartbeat IPC: 0.8556 cumulative IPC: 1.967 (Simulation time: 02 hr 36 min 47 sec)
Heartbeat CPU 0 instructions: 320000004 cycles: 149907293 heartbeat IPC: 1.912 cumulative IPC: 1.965 (Simulation time: 02 hr 42 min 28 sec)
Heartbeat CPU 0 instructions: 330000000 cycles: 153987012 heartbeat IPC: 2.451 cumulative IPC: 1.979 (Simulation time: 02 hr 47 min 19 sec)
Heartbeat CPU 0 instructions: 340000001 cycles: 158341795 heartbeat IPC: 2.296 cumulative IPC: 1.988 (Simulation time: 02 hr 52 min 16 sec)
Heartbeat CPU 0 instructions: 350000004 cycles: 162655069 heartbeat IPC: 2.318 cumulative IPC: 1.998 (Simulation time: 02 hr 57 min 17 sec)
Heartbeat CPU 0 instructions: 360000003 cycles: 166512923 heartbeat IPC: 2.592 cumulative IPC: 2.013 (Simulation time: 03 hr 01 min 59 sec)
Heartbeat CPU 0 instructions: 370000001 cycles: 170231847 heartbeat IPC: 2.689 cumulative IPC: 2.029 (Simulation time: 03 hr 06 min 37 sec)
Heartbeat CPU 0 instructions: 380000004 cycles: 173800087 heartbeat IPC: 2.803 cumulative IPC: 2.046 (Simulation time: 03 hr 11 min 10 sec)
Heartbeat CPU 0 instructions: 390000002 cycles: 177547626 heartbeat IPC: 2.668 cumulative IPC: 2.06 (Simulation time: 03 hr 15 min 47 sec)
Heartbeat CPU 0 instructions: 400000000 cycles: 181531370 heartbeat IPC: 2.51 cumulative IPC: 2.071 (Simulation time: 03 hr 20 min 32 sec)
Heartbeat CPU 0 instructions: 410000000 cycles: 188968758 heartbeat IPC: 1.345 cumulative IPC: 2.04 (Simulation time: 03 hr 27 min 32 sec)
Heartbeat CPU 0 instructions: 420000003 cycles: 201013038 heartbeat IPC: 0.8303 cumulative IPC: 1.963 (Simulation time: 03 hr 37 min 28 sec)
Heartbeat CPU 0 instructions: 430000000 cycles: 208723382 heartbeat IPC: 1.297 cumulative IPC: 1.937 (Simulation time: 03 hr 44 min 56 sec)
Heartbeat CPU 0 instructions: 440000004 cycles: 216639260 heartbeat IPC: 1.263 cumulative IPC: 1.91 (Simulation time: 03 hr 52 min 27 sec)
Heartbeat CPU 0 instructions: 450000000 cycles: 224074621 heartbeat IPC: 1.345 cumulative IPC: 1.891 (Simulation time: 03 hr 59 min 41 sec)
Heartbeat CPU 0 instructions: 460000002 cycles: 237364250 heartbeat IPC: 0.7525 cumulative IPC: 1.823 (Simulation time: 04 hr 10 min 29 sec)
Heartbeat CPU 0 instructions: 470000003 cycles: 247614535 heartbeat IPC: 0.9756 cumulative IPC: 1.786 (Simulation time: 04 hr 19 min 22 sec)
Heartbeat CPU 0 instructions: 480000003 cycles: 252014811 heartbeat IPC: 2.273 cumulative IPC: 1.795 (Simulation time: 04 hr 24 min 25 sec)
Heartbeat CPU 0 instructions: 490000001 cycles: 256527391 heartbeat IPC: 2.216 cumulative IPC: 1.803 (Simulation time: 04 hr 29 min 29 sec)
Heartbeat CPU 0 instructions: 500000002 cycles: 260558292 heartbeat IPC: 2.481 cumulative IPC: 1.814 (Simulation time: 04 hr 34 min 17 sec)
Heartbeat CPU 0 instructions: 510000000 cycles: 264206686 heartbeat IPC: 2.741 cumulative IPC: 1.828 (Simulation time: 04 hr 38 min 59 sec)
Heartbeat CPU 0 instructions: 520000000 cycles: 268091693 heartbeat IPC: 2.574 cumulative IPC: 1.839 (Simulation time: 04 hr 43 min 42 sec)
Heartbeat CPU 0 instructions: 530000001 cycles: 279742073 heartbeat IPC: 0.8583 cumulative IPC: 1.796 (Simulation time: 04 hr 53 min 22 sec)
Heartbeat CPU 0 instructions: 540000000 cycles: 292045709 heartbeat IPC: 0.8128 cumulative IPC: 1.753 (Simulation time: 05 hr 03 min 33 sec)
Heartbeat CPU 0 instructions: 550000004 cycles: 306110313 heartbeat IPC: 0.711 cumulative IPC: 1.703 (Simulation time: 05 hr 14 min 50 sec)
Heartbeat CPU 0 instructions: 560000004 cycles: 310662745 heartbeat IPC: 2.197 cumulative IPC: 1.71 (Simulation time: 05 hr 19 min 58 sec)
Heartbeat CPU 0 instructions: 570000001 cycles: 313795819 heartbeat IPC: 3.192 cumulative IPC: 1.726 (Simulation time: 05 hr 24 min 19 sec)
Heartbeat CPU 0 instructions: 580000003 cycles: 317342020 heartbeat IPC: 2.82 cumulative IPC: 1.739 (Simulation time: 05 hr 28 min 46 sec)
Heartbeat CPU 0 instructions: 590000002 cycles: 320966029 heartbeat IPC: 2.759 cumulative IPC: 1.751 (Simulation time: 05 hr 33 min 35 sec)
Heartbeat CPU 0 instructions: 600000003 cycles: 324032391 heartbeat IPC: 3.261 cumulative IPC: 1.765 (Simulation time: 05 hr 38 min 23 sec)
Heartbeat CPU 0 instructions: 610000001 cycles: 327542237 heartbeat IPC: 2.849 cumulative IPC: 1.778 (Simulation time: 05 hr 43 min 07 sec)
Heartbeat CPU 0 instructions: 620000000 cycles: 331556675 heartbeat IPC: 2.491 cumulative IPC: 1.787 (Simulation time: 05 hr 47 min 51 sec)
Heartbeat CPU 0 instructions: 630000002 cycles: 334922357 heartbeat IPC: 2.971 cumulative IPC: 1.799 (Simulation time: 05 hr 52 min 35 sec)
Heartbeat CPU 0 instructions: 640000004 cycles: 338933416 heartbeat IPC: 2.493 cumulative IPC: 1.807 (Simulation time: 05 hr 57 min 35 sec)
Heartbeat CPU 0 instructions: 650000001 cycles: 342753852 heartbeat IPC: 2.618 cumulative IPC: 1.817 (Simulation time: 06 hr 02 min 33 sec)
Simulation finished CPU 0 instructions: 600000001 cycles: 330253791 cumulative IPC: 1.817 (Simulation time: 06 hr 02 min 33 sec)
Simulation complete CPU 0 instructions: 600000001 cycles: 330253791 cumulative IPC: 1.817 (Simulation time: 06 hr 02 min 33 sec)

ChampSim completed all CPUs

=== Simulation ===
CPU 0 runs traces/400.perlbench-50B.champsimtrace.xz
Region of Interest Statistics

CPU 0 cumulative IPC: 1.817 instructions: 600000001 cycles: 330253791
CPU 0 Branch Prediction Accuracy: 96.2% MPKI: 7.839 Average ROB Occupancy at Mispredict: 43.48
Branch type MPKI
BRANCH_DIRECT_JUMP: 0.0176
BRANCH_INDIRECT: 0.38
BRANCH_CONDITIONAL: 6.99
BRANCH_DIRECT_CALL: 0.0067
BRANCH_INDIRECT_CALL: 0.431
BRANCH_RETURN: 0.0161

LLC TOTAL        ACCESS:     891100 HIT:     313579 MISS:     577521
LLC LOAD         ACCESS:     377979 HIT:     145186 MISS:     232793
LLC RFO          ACCESS:      32922 HIT:       8392 MISS:      24530
LLC PREFETCH     ACCESS:     377979 HIT:     126844 MISS:     251135
LLC WRITE        ACCESS:      84000 HIT:      31585 MISS:      52415
LLC TRANSLATION  ACCESS:      18220 HIT:       1572 MISS:      16648
LLC PREFETCH REQUESTED:     377979 ISSUED:     377979 USEFUL:      82779 USELESS:     112680
LLC AVERAGE MISS LATENCY: 523.2 cycles
cpu0_DTLB TOTAL        ACCESS:  146456526 HIT:  145153762 MISS:    1302764
cpu0_DTLB LOAD         ACCESS:  146456526 HIT:  145153762 MISS:    1302764
cpu0_DTLB RFO          ACCESS:          0 HIT:          0 MISS:          0
cpu0_DTLB PREFETCH     ACCESS:          0 HIT:          0 MISS:          0
cpu0_DTLB WRITE        ACCESS:          0 HIT:          0 MISS:          0
cpu0_DTLB TRANSLATION  ACCESS:          0 HIT:          0 MISS:          0
cpu0_DTLB PREFETCH REQUESTED:          0 ISSUED:          0 USEFUL:          0 USELESS:          0
cpu0_DTLB AVERAGE MISS LATENCY: 15.17 cycles
cpu0_ITLB TOTAL        ACCESS:    8985208 HIT:    8800479 MISS:     184729
cpu0_ITLB LOAD         ACCESS:    8985208 HIT:    8800479 MISS:     184729
cpu0_ITLB RFO          ACCESS:          0 HIT:          0 MISS:          0
cpu0_ITLB PREFETCH     ACCESS:          0 HIT:          0 MISS:          0
cpu0_ITLB WRITE        ACCESS:          0 HIT:          0 MISS:          0
cpu0_ITLB TRANSLATION  ACCESS:          0 HIT:          0 MISS:          0
cpu0_ITLB PREFETCH REQUESTED:          0 ISSUED:          0 USEFUL:          0 USELESS:          0
cpu0_ITLB AVERAGE MISS LATENCY: 4.263 cycles
cpu0_L1D TOTAL        ACCESS:  193280068 HIT:  190430351 MISS:    2849717
cpu0_L1D LOAD         ACCESS:  107433400 HIT:  105092636 MISS:    2340764
cpu0_L1D RFO          ACCESS:          0 HIT:          0 MISS:          0
cpu0_L1D PREFETCH     ACCESS:          0 HIT:          0 MISS:          0
cpu0_L1D WRITE        ACCESS:   85818137 HIT:   85335703 MISS:     482434
cpu0_L1D TRANSLATION  ACCESS:      28531 HIT:       2012 MISS:      26519
cpu0_L1D PREFETCH REQUESTED:          0 ISSUED:          0 USEFUL:          0 USELESS:          0
cpu0_L1D AVERAGE MISS LATENCY: 61.88 cycles
cpu0_L1I TOTAL        ACCESS:   10419662 HIT:    8657113 MISS:    1762549
cpu0_L1I LOAD         ACCESS:   10419662 HIT:    8657113 MISS:    1762549
cpu0_L1I RFO          ACCESS:          0 HIT:          0 MISS:          0
cpu0_L1I PREFETCH     ACCESS:          0 HIT:          0 MISS:          0
cpu0_L1I WRITE        ACCESS:          0 HIT:          0 MISS:          0
cpu0_L1I TRANSLATION  ACCESS:          0 HIT:          0 MISS:          0
cpu0_L1I PREFETCH REQUESTED:          0 ISSUED:          0 USEFUL:          0 USELESS:          0
cpu0_L1I AVERAGE MISS LATENCY: 13.45 cycles
cpu0_L2C TOTAL        ACCESS:    3232265 HIT:    2802219 MISS:     430046
cpu0_L2C LOAD         ACCESS:    2710075 HIT:    2332096 MISS:     377979
cpu0_L2C RFO          ACCESS:     133282 HIT:     100360 MISS:      32922
cpu0_L2C PREFETCH     ACCESS:          0 HIT:          0 MISS:          0
cpu0_L2C WRITE        ACCESS:     362459 HIT:     361534 MISS:        925
cpu0_L2C TRANSLATION  ACCESS:      26449 HIT:       8229 MISS:      18220
cpu0_L2C PREFETCH REQUESTED:          0 ISSUED:          0 USEFUL:          0 USELESS:          0
cpu0_L2C AVERAGE MISS LATENCY: 415 cycles
cpu0_STLB TOTAL        ACCESS:    1008326 HIT:     981630 MISS:      26696
cpu0_STLB LOAD         ACCESS:    1008326 HIT:     981630 MISS:      26696
cpu0_STLB RFO          ACCESS:          0 HIT:          0 MISS:          0
cpu0_STLB PREFETCH     ACCESS:          0 HIT:          0 MISS:          0
cpu0_STLB WRITE        ACCESS:          0 HIT:          0 MISS:          0
cpu0_STLB TRANSLATION  ACCESS:          0 HIT:          0 MISS:          0
cpu0_STLB PREFETCH REQUESTED:          0 ISSUED:          0 USEFUL:          0 USELESS:          0
cpu0_STLB AVERAGE MISS LATENCY: 530.2 cycles

DRAM Statistics

Channel 0 RQ ROW_BUFFER_HIT:      72691
  ROW_BUFFER_MISS:     383332
 AVG DBUS CONGESTED CYCLE: 3.886
WQ ROW_BUFFER_HIT: Channel 0 
  ROW_BUFFER_MISS:       8266
  FULL:      57443
