WARNING: physical memory size is smaller than virtual memory size.

*** ChampSim Multicore Out-of-Order Simulator ***
Warmup Instructions: 50000000
Simulation Instructions: 600000000
Number of CPUs: 1
Page size: 4096

CPU 0 Tage branch predictor
Off-chip DRAM Size: 4 GiB Channels: 1 Width: 64-bit Data Race: 3200 MT/s
Heartbeat CPU 0 instructions: 10000000 cycles: 2500061 heartbeat IPC: 4 cumulative IPC: 4 (Simulation time: 00 hr 04 min 22 sec)
Heartbeat CPU 0 instructions: 20000000 cycles: 5000061 heartbeat IPC: 4 cumulative IPC: 4 (Simulation time: 00 hr 08 min 31 sec)
Heartbeat CPU 0 instructions: 30000000 cycles: 7500061 heartbeat IPC: 4 cumulative IPC: 4 (Simulation time: 00 hr 12 min 49 sec)
Heartbeat CPU 0 instructions: 40000000 cycles: 10000061 heartbeat IPC: 4 cumulative IPC: 4 (Simulation time: 00 hr 17 min 00 sec)
Heartbeat CPU 0 instructions: 50000000 cycles: 12500061 heartbeat IPC: 4 cumulative IPC: 4 (Simulation time: 00 hr 21 min 09 sec)
Warmup finished CPU 0 instructions: 50000000 cycles: 12500062 cumulative IPC: 4 (Simulation time: 00 hr 21 min 09 sec)
Warmup complete CPU 0 instructions: 50000000 cycles: 12500062 cumulative IPC: 4 (Simulation time: 00 hr 21 min 09 sec)
Heartbeat CPU 0 instructions: 60000004 cycles: 15503755 heartbeat IPC: 3.329 cumulative IPC: 3.329 (Simulation time: 00 hr 26 min 20 sec)
Heartbeat CPU 0 instructions: 70000003 cycles: 18381707 heartbeat IPC: 3.475 cumulative IPC: 3.4 (Simulation time: 00 hr 31 min 10 sec)
Heartbeat CPU 0 instructions: 80000002 cycles: 21403704 heartbeat IPC: 3.309 cumulative IPC: 3.369 (Simulation time: 00 hr 36 min 07 sec)
Heartbeat CPU 0 instructions: 90000000 cycles: 24125815 heartbeat IPC: 3.674 cumulative IPC: 3.441 (Simulation time: 00 hr 40 min 50 sec)
Heartbeat CPU 0 instructions: 100000003 cycles: 26891989 heartbeat IPC: 3.615 cumulative IPC: 3.474 (Simulation time: 00 hr 45 min 44 sec)
Heartbeat CPU 0 instructions: 110000001 cycles: 29797284 heartbeat IPC: 3.442 cumulative IPC: 3.469 (Simulation time: 00 hr 50 min 35 sec)
Heartbeat CPU 0 instructions: 120000001 cycles: 32521234 heartbeat IPC: 3.671 cumulative IPC: 3.496 (Simulation time: 00 hr 55 min 22 sec)
Heartbeat CPU 0 instructions: 130000003 cycles: 35423852 heartbeat IPC: 3.445 cumulative IPC: 3.49 (Simulation time: 01 hr 00 min 16 sec)
Heartbeat CPU 0 instructions: 140000002 cycles: 38261887 heartbeat IPC: 3.524 cumulative IPC: 3.494 (Simulation time: 01 hr 05 min 06 sec)
Heartbeat CPU 0 instructions: 150000001 cycles: 41035638 heartbeat IPC: 3.605 cumulative IPC: 3.504 (Simulation time: 01 hr 09 min 52 sec)
Heartbeat CPU 0 instructions: 160000000 cycles: 43951113 heartbeat IPC: 3.43 cumulative IPC: 3.497 (Simulation time: 01 hr 14 min 42 sec)
Heartbeat CPU 0 instructions: 170000001 cycles: 46882100 heartbeat IPC: 3.412 cumulative IPC: 3.49 (Simulation time: 01 hr 19 min 39 sec)
Heartbeat CPU 0 instructions: 180000000 cycles: 49680801 heartbeat IPC: 3.573 cumulative IPC: 3.496 (Simulation time: 01 hr 24 min 34 sec)
Heartbeat CPU 0 instructions: 190000002 cycles: 52389698 heartbeat IPC: 3.692 cumulative IPC: 3.51 (Simulation time: 01 hr 29 min 30 sec)
Heartbeat CPU 0 instructions: 200000002 cycles: 55218954 heartbeat IPC: 3.534 cumulative IPC: 3.511 (Simulation time: 01 hr 34 min 24 sec)
Heartbeat CPU 0 instructions: 210000000 cycles: 58119260 heartbeat IPC: 3.448 cumulative IPC: 3.507 (Simulation time: 01 hr 39 min 14 sec)
Heartbeat CPU 0 instructions: 220000001 cycles: 60885384 heartbeat IPC: 3.615 cumulative IPC: 3.513 (Simulation time: 01 hr 44 min 04 sec)
Heartbeat CPU 0 instructions: 230000002 cycles: 63780067 heartbeat IPC: 3.455 cumulative IPC: 3.51 (Simulation time: 01 hr 48 min 58 sec)
Heartbeat CPU 0 instructions: 240000004 cycles: 66741865 heartbeat IPC: 3.376 cumulative IPC: 3.503 (Simulation time: 01 hr 53 min 54 sec)
Heartbeat CPU 0 instructions: 250000003 cycles: 69653844 heartbeat IPC: 3.434 cumulative IPC: 3.499 (Simulation time: 01 hr 58 min 45 sec)
Heartbeat CPU 0 instructions: 260000001 cycles: 72450574 heartbeat IPC: 3.576 cumulative IPC: 3.503 (Simulation time: 02 hr 03 min 36 sec)
Heartbeat CPU 0 instructions: 270000002 cycles: 78032987 heartbeat IPC: 1.791 cumulative IPC: 3.357 (Simulation time: 02 hr 10 min 19 sec)
Heartbeat CPU 0 instructions: 280000000 cycles: 87077019 heartbeat IPC: 1.106 cumulative IPC: 3.084 (Simulation time: 02 hr 19 min 28 sec)
Heartbeat CPU 0 instructions: 290000000 cycles: 94470089 heartbeat IPC: 1.353 cumulative IPC: 2.928 (Simulation time: 02 hr 27 min 35 sec)
Heartbeat CPU 0 instructions: 300000003 cycles: 99576930 heartbeat IPC: 1.958 cumulative IPC: 2.871 (Simulation time: 02 hr 34 min 23 sec)
Heartbeat CPU 0 instructions: 310000001 cycles: 107843447 heartbeat IPC: 1.21 cumulative IPC: 2.727 (Simulation time: 02 hr 43 min 20 sec)
Heartbeat CPU 0 instructions: 320000004 cycles: 111600929 heartbeat IPC: 2.661 cumulative IPC: 2.724 (Simulation time: 02 hr 49 min 03 sec)
Heartbeat CPU 0 instructions: 330000000 cycles: 114795255 heartbeat IPC: 3.131 cumulative IPC: 2.737 (Simulation time: 02 hr 54 min 15 sec)
Heartbeat CPU 0 instructions: 340000001 cycles: 117999328 heartbeat IPC: 3.121 cumulative IPC: 2.749 (Simulation time: 02 hr 59 min 26 sec)
Heartbeat CPU 0 instructions: 350000000 cycles: 121354854 heartbeat IPC: 2.98 cumulative IPC: 2.756 (Simulation time: 03 hr 04 min 46 sec)
Heartbeat CPU 0 instructions: 360000004 cycles: 124517232 heartbeat IPC: 3.162 cumulative IPC: 2.767 (Simulation time: 03 hr 10 min 01 sec)
Heartbeat CPU 0 instructions: 370000001 cycles: 127624130 heartbeat IPC: 3.219 cumulative IPC: 2.78 (Simulation time: 03 hr 15 min 03 sec)
Heartbeat CPU 0 instructions: 380000004 cycles: 130741245 heartbeat IPC: 3.208 cumulative IPC: 2.791 (Simulation time: 03 hr 20 min 15 sec)
Heartbeat CPU 0 instructions: 390000002 cycles: 134028226 heartbeat IPC: 3.042 cumulative IPC: 2.798 (Simulation time: 03 hr 25 min 33 sec)
Heartbeat CPU 0 instructions: 400000000 cycles: 137346433 heartbeat IPC: 3.014 cumulative IPC: 2.803 (Simulation time: 03 hr 30 min 54 sec)
Heartbeat CPU 0 instructions: 410000000 cycles: 143290138 heartbeat IPC: 1.682 cumulative IPC: 2.753 (Simulation time: 03 hr 37 min 57 sec)
Heartbeat CPU 0 instructions: 420000003 cycles: 151877804 heartbeat IPC: 1.164 cumulative IPC: 2.655 (Simulation time: 03 hr 46 min 56 sec)
Heartbeat CPU 0 instructions: 430000004 cycles: 157246214 heartbeat IPC: 1.863 cumulative IPC: 2.625 (Simulation time: 03 hr 53 min 54 sec)
Heartbeat CPU 0 instructions: 440000004 cycles: 162126543 heartbeat IPC: 2.049 cumulative IPC: 2.606 (Simulation time: 04 hr 00 min 31 sec)
Heartbeat CPU 0 instructions: 450000000 cycles: 166740506 heartbeat IPC: 2.167 cumulative IPC: 2.593 (Simulation time: 04 hr 06 min 54 sec)
Heartbeat CPU 0 instructions: 460000002 cycles: 174967895 heartbeat IPC: 1.215 cumulative IPC: 2.524 (Simulation time: 04 hr 15 min 44 sec)
Heartbeat CPU 0 instructions: 470000003 cycles: 182368428 heartbeat IPC: 1.351 cumulative IPC: 2.473 (Simulation time: 04 hr 23 min 59 sec)
Heartbeat CPU 0 instructions: 480000000 cycles: 185811249 heartbeat IPC: 2.905 cumulative IPC: 2.481 (Simulation time: 04 hr 29 min 19 sec)
Heartbeat CPU 0 instructions: 490000001 cycles: 189475745 heartbeat IPC: 2.729 cumulative IPC: 2.486 (Simulation time: 04 hr 34 min 51 sec)
Heartbeat CPU 0 instructions: 500000002 cycles: 193008767 heartbeat IPC: 2.83 cumulative IPC: 2.493 (Simulation time: 04 hr 40 min 15 sec)
Heartbeat CPU 0 instructions: 510000000 cycles: 196497346 heartbeat IPC: 2.866 cumulative IPC: 2.5 (Simulation time: 04 hr 45 min 39 sec)
Heartbeat CPU 0 instructions: 520000000 cycles: 200032670 heartbeat IPC: 2.829 cumulative IPC: 2.506 (Simulation time: 04 hr 51 min 04 sec)
Heartbeat CPU 0 instructions: 530000001 cycles: 208669050 heartbeat IPC: 1.158 cumulative IPC: 2.447 (Simulation time: 05 hr 00 min 04 sec)
Heartbeat CPU 0 instructions: 540000000 cycles: 217174054 heartbeat IPC: 1.176 cumulative IPC: 2.394 (Simulation time: 05 hr 09 min 10 sec)
Heartbeat CPU 0 instructions: 550000004 cycles: 227290708 heartbeat IPC: 0.9885 cumulative IPC: 2.328 (Simulation time: 05 hr 19 min 21 sec)
Heartbeat CPU 0 instructions: 560000004 cycles: 230879321 heartbeat IPC: 2.787 cumulative IPC: 2.335 (Simulation time: 05 hr 24 min 56 sec)
Heartbeat CPU 0 instructions: 570000002 cycles: 233706408 heartbeat IPC: 3.537 cumulative IPC: 2.351 (Simulation time: 05 hr 29 min 50 sec)
Heartbeat CPU 0 instructions: 580000000 cycles: 236638808 heartbeat IPC: 3.41 cumulative IPC: 2.365 (Simulation time: 05 hr 35 min 00 sec)
Heartbeat CPU 0 instructions: 590000001 cycles: 239577530 heartbeat IPC: 3.403 cumulative IPC: 2.378 (Simulation time: 05 hr 40 min 07 sec)
Heartbeat CPU 0 instructions: 600000003 cycles: 242279236 heartbeat IPC: 3.701 cumulative IPC: 2.394 (Simulation time: 05 hr 45 min 16 sec)
Heartbeat CPU 0 instructions: 610000001 cycles: 245152028 heartbeat IPC: 3.481 cumulative IPC: 2.407 (Simulation time: 05 hr 50 min 30 sec)
Heartbeat CPU 0 instructions: 620000004 cycles: 248111195 heartbeat IPC: 3.379 cumulative IPC: 2.419 (Simulation time: 05 hr 55 min 52 sec)
Heartbeat CPU 0 instructions: 630000002 cycles: 250923349 heartbeat IPC: 3.556 cumulative IPC: 2.433 (Simulation time: 06 hr 00 min 52 sec)
Heartbeat CPU 0 instructions: 640000004 cycles: 253972558 heartbeat IPC: 3.28 cumulative IPC: 2.443 (Simulation time: 06 hr 06 min 04 sec)
Heartbeat CPU 0 instructions: 650000001 cycles: 256681399 heartbeat IPC: 3.692 cumulative IPC: 2.457 (Simulation time: 06 hr 10 min 52 sec)
Simulation finished CPU 0 instructions: 600000001 cycles: 244181338 cumulative IPC: 2.457 (Simulation time: 06 hr 10 min 52 sec)
Simulation complete CPU 0 instructions: 600000001 cycles: 244181338 cumulative IPC: 2.457 (Simulation time: 06 hr 10 min 52 sec)

ChampSim completed all CPUs

=== Simulation ===
CPU 0 runs traces/400.perlbench-50B.champsimtrace.xz
Region of Interest Statistics

CPU 0 cumulative IPC: 2.457 instructions: 600000001 cycles: 244181338
CPU 0 Branch Prediction Accuracy: 99.01% MPKI: 2.04 Average ROB Occupancy at Mispredict: 93.63
Branch type MPKI
BRANCH_DIRECT_JUMP: 0.0176
BRANCH_INDIRECT: 0.38
BRANCH_CONDITIONAL: 1.19
BRANCH_DIRECT_CALL: 0.0067
BRANCH_INDIRECT_CALL: 0.431
BRANCH_RETURN: 0.0161

LLC TOTAL        ACCESS:     889518 HIT:     393330 MISS:     496188
LLC LOAD         ACCESS:     377325 HIT:     153861 MISS:     223464
LLC RFO          ACCESS:      32729 HIT:      12156 MISS:      20573
LLC PREFETCH     ACCESS:     377325 HIT:     141611 MISS:     235714
LLC WRITE        ACCESS:      83905 HIT:      80830 MISS:       3075
LLC TRANSLATION  ACCESS:      18234 HIT:       4872 MISS:      13362
LLC PREFETCH REQUESTED:     377325 ISSUED:     377325 USEFUL:      83986 USELESS:      87936
LLC AVERAGE MISS LATENCY: 631.4 cycles
cpu0_DTLB TOTAL        ACCESS:  133173967 HIT:  131823900 MISS:    1350067
cpu0_DTLB LOAD         ACCESS:  133173967 HIT:  131823900 MISS:    1350067
cpu0_DTLB RFO          ACCESS:          0 HIT:          0 MISS:          0
cpu0_DTLB PREFETCH     ACCESS:          0 HIT:          0 MISS:          0
cpu0_DTLB WRITE        ACCESS:          0 HIT:          0 MISS:          0
cpu0_DTLB TRANSLATION  ACCESS:          0 HIT:          0 MISS:          0
cpu0_DTLB PREFETCH REQUESTED:          0 ISSUED:          0 USEFUL:          0 USELESS:          0
cpu0_DTLB AVERAGE MISS LATENCY: 13.23 cycles
cpu0_ITLB TOTAL        ACCESS:    8990634 HIT:    8780246 MISS:     210388
cpu0_ITLB LOAD         ACCESS:    8990634 HIT:    8780246 MISS:     210388
cpu0_ITLB RFO          ACCESS:          0 HIT:          0 MISS:          0
cpu0_ITLB PREFETCH     ACCESS:          0 HIT:          0 MISS:          0
cpu0_ITLB WRITE        ACCESS:          0 HIT:          0 MISS:          0
cpu0_ITLB TRANSLATION  ACCESS:          0 HIT:          0 MISS:          0
cpu0_ITLB PREFETCH REQUESTED:          0 ISSUED:          0 USEFUL:          0 USELESS:          0
cpu0_ITLB AVERAGE MISS LATENCY: 3.274 cycles
cpu0_L1D TOTAL        ACCESS:  178255686 HIT:  175321744 MISS:    2933942
cpu0_L1D LOAD         ACCESS:   92737594 HIT:   90331479 MISS:    2406115
cpu0_L1D RFO          ACCESS:          0 HIT:          0 MISS:          0
cpu0_L1D PREFETCH     ACCESS:          0 HIT:          0 MISS:          0
cpu0_L1D WRITE        ACCESS:   85489559 HIT:   84988253 MISS:     501306
cpu0_L1D TRANSLATION  ACCESS:      28533 HIT:       2012 MISS:      26521
cpu0_L1D PREFETCH REQUESTED:          0 ISSUED:          0 USEFUL:          0 USELESS:          0
cpu0_L1D AVERAGE MISS LATENCY: 63.42 cycles
cpu0_L1I TOTAL        ACCESS:   10510479 HIT:    8610680 MISS:    1899799
cpu0_L1I LOAD         ACCESS:   10510479 HIT:    8610680 MISS:    1899799
cpu0_L1I RFO          ACCESS:          0 HIT:          0 MISS:          0
cpu0_L1I PREFETCH     ACCESS:          0 HIT:          0 MISS:          0
cpu0_L1I WRITE        ACCESS:          0 HIT:          0 MISS:          0
cpu0_L1I TRANSLATION  ACCESS:          0 HIT:          0 MISS:          0
cpu0_L1I PREFETCH REQUESTED:          0 ISSUED:          0 USEFUL:          0 USELESS:          0
cpu0_L1I AVERAGE MISS LATENCY: 9.609 cycles
cpu0_L2C TOTAL        ACCESS:    3236014 HIT:    2806808 MISS:     429206
cpu0_L2C LOAD         ACCESS:    2709161 HIT:    2331836 MISS:     377325
cpu0_L2C RFO          ACCESS:     135499 HIT:     102770 MISS:      32729
cpu0_L2C PREFETCH     ACCESS:          0 HIT:          0 MISS:          0
cpu0_L2C WRITE        ACCESS:     364914 HIT:     363996 MISS:        918
cpu0_L2C TRANSLATION  ACCESS:      26440 HIT:       8206 MISS:      18234
cpu0_L2C PREFETCH REQUESTED:          0 ISSUED:          0 USEFUL:          0 USELESS:          0
cpu0_L2C AVERAGE MISS LATENCY: 441.4 cycles
cpu0_STLB TOTAL        ACCESS:    1009835 HIT:     983144 MISS:      26691
cpu0_STLB LOAD         ACCESS:    1009835 HIT:     983144 MISS:      26691
cpu0_STLB RFO          ACCESS:          0 HIT:          0 MISS:          0
cpu0_STLB PREFETCH     ACCESS:          0 HIT:          0 MISS:          0
cpu0_STLB WRITE        ACCESS:          0 HIT:          0 MISS:          0
cpu0_STLB TRANSLATION  ACCESS:          0 HIT:          0 MISS:          0
cpu0_STLB PREFETCH REQUESTED:          0 ISSUED:          0 USEFUL:          0 USELESS:          0
cpu0_STLB AVERAGE MISS LATENCY: 472.8 cycles

DRAM Statistics

Channel 0 RQ ROW_BUFFER_HIT:      87237
  ROW_BUFFER_MISS:     322025
 AVG DBUS CONGESTED CYCLE: 3.895
WQ ROW_BUFFER_HIT: Channel 0 
  ROW_BUFFER_MISS:       4770
  FULL:      45672
