WARNING: physical memory size is smaller than virtual memory size.

*** ChampSim Multicore Out-of-Order Simulator ***
Warmup Instructions: 50000000
Simulation Instructions: 600000000
Number of CPUs: 1
Page size: 4096

Initialize SIGNATURE TABLE
ST_SET: 1
ST_WAY: 256
ST_TAG_BIT: 16
ST_TAG_MASK: ffff

Initialize PATTERN TABLE
PT_SET: 512
PT_WAY: 4
SIG_DELTA_BIT: 7
C_SIG_BIT: 4
C_DELTA_BIT: 4

Initialize PREFETCH FILTER
FILTER_SET: 1024
Off-chip DRAM Size: 4 GiB Channels: 1 Width: 64-bit Data Race: 3200 MT/s
Heartbeat CPU 0 instructions: 10000001 cycles: 2500318 heartbeat IPC: 3.999 cumulative IPC: 3.999 (Simulation time: 00 hr 02 min 19 sec)
Heartbeat CPU 0 instructions: 20000002 cycles: 5037082 heartbeat IPC: 3.942 cumulative IPC: 3.971 (Simulation time: 00 hr 05 min 50 sec)
Heartbeat CPU 0 instructions: 30000002 cycles: 7537082 heartbeat IPC: 4 cumulative IPC: 3.98 (Simulation time: 00 hr 09 min 11 sec)
Heartbeat CPU 0 instructions: 40000002 cycles: 10037082 heartbeat IPC: 4 cumulative IPC: 3.985 (Simulation time: 00 hr 12 min 37 sec)
Heartbeat CPU 0 instructions: 50000002 cycles: 12537082 heartbeat IPC: 4 cumulative IPC: 3.988 (Simulation time: 00 hr 16 min 03 sec)
Warmup finished CPU 0 instructions: 50000002 cycles: 12537083 cumulative IPC: 3.988 (Simulation time: 00 hr 16 min 03 sec)
Warmup complete CPU 0 instructions: 50000002 cycles: 12537083 cumulative IPC: 3.988 (Simulation time: 00 hr 16 min 03 sec)
Heartbeat CPU 0 instructions: 60000000 cycles: 17746157 heartbeat IPC: 1.92 cumulative IPC: 1.92 (Simulation time: 00 hr 21 min 23 sec)
Heartbeat CPU 0 instructions: 70000002 cycles: 22676910 heartbeat IPC: 2.028 cumulative IPC: 1.972 (Simulation time: 00 hr 26 min 41 sec)
Heartbeat CPU 0 instructions: 80000001 cycles: 28074499 heartbeat IPC: 1.853 cumulative IPC: 1.931 (Simulation time: 00 hr 32 min 12 sec)
Heartbeat CPU 0 instructions: 90000001 cycles: 32972503 heartbeat IPC: 2.042 cumulative IPC: 1.957 (Simulation time: 00 hr 37 min 25 sec)
Heartbeat CPU 0 instructions: 100000000 cycles: 38114185 heartbeat IPC: 1.945 cumulative IPC: 1.955 (Simulation time: 00 hr 42 min 42 sec)
Heartbeat CPU 0 instructions: 110000000 cycles: 43022909 heartbeat IPC: 2.037 cumulative IPC: 1.968 (Simulation time: 00 hr 47 min 52 sec)
Heartbeat CPU 0 instructions: 120000001 cycles: 48238748 heartbeat IPC: 1.917 cumulative IPC: 1.961 (Simulation time: 00 hr 53 min 24 sec)
Heartbeat CPU 0 instructions: 130000001 cycles: 53419428 heartbeat IPC: 1.93 cumulative IPC: 1.957 (Simulation time: 00 hr 58 min 51 sec)
Heartbeat CPU 0 instructions: 140000001 cycles: 58758297 heartbeat IPC: 1.873 cumulative IPC: 1.947 (Simulation time: 01 hr 04 min 15 sec)
Heartbeat CPU 0 instructions: 150000001 cycles: 64101211 heartbeat IPC: 1.872 cumulative IPC: 1.939 (Simulation time: 01 hr 09 min 44 sec)
Heartbeat CPU 0 instructions: 160000004 cycles: 69338961 heartbeat IPC: 1.909 cumulative IPC: 1.937 (Simulation time: 01 hr 15 min 10 sec)
Heartbeat CPU 0 instructions: 170000000 cycles: 80113230 heartbeat IPC: 0.9281 cumulative IPC: 1.776 (Simulation time: 01 hr 24 min 07 sec)
Heartbeat CPU 0 instructions: 180000004 cycles: 91172300 heartbeat IPC: 0.9042 cumulative IPC: 1.653 (Simulation time: 01 hr 33 min 37 sec)
Heartbeat CPU 0 instructions: 190000001 cycles: 102295589 heartbeat IPC: 0.899 cumulative IPC: 1.56 (Simulation time: 01 hr 42 min 57 sec)
Heartbeat CPU 0 instructions: 200000003 cycles: 107091497 heartbeat IPC: 2.085 cumulative IPC: 1.586 (Simulation time: 01 hr 48 min 06 sec)
Heartbeat CPU 0 instructions: 210000001 cycles: 112032789 heartbeat IPC: 2.024 cumulative IPC: 1.608 (Simulation time: 01 hr 53 min 22 sec)
Heartbeat CPU 0 instructions: 220000000 cycles: 116874456 heartbeat IPC: 2.065 cumulative IPC: 1.629 (Simulation time: 01 hr 58 min 34 sec)
Heartbeat CPU 0 instructions: 230000002 cycles: 122238441 heartbeat IPC: 1.864 cumulative IPC: 1.641 (Simulation time: 02 hr 04 min 03 sec)
Heartbeat CPU 0 instructions: 240000000 cycles: 127111426 heartbeat IPC: 2.052 cumulative IPC: 1.658 (Simulation time: 02 hr 09 min 16 sec)
Heartbeat CPU 0 instructions: 250000000 cycles: 132293946 heartbeat IPC: 1.93 cumulative IPC: 1.67 (Simulation time: 02 hr 14 min 41 sec)
Heartbeat CPU 0 instructions: 260000000 cycles: 137342528 heartbeat IPC: 1.981 cumulative IPC: 1.683 (Simulation time: 02 hr 20 min 00 sec)
Heartbeat CPU 0 instructions: 270000002 cycles: 142253786 heartbeat IPC: 2.036 cumulative IPC: 1.696 (Simulation time: 02 hr 25 min 15 sec)
Heartbeat CPU 0 instructions: 280000002 cycles: 147182105 heartbeat IPC: 2.029 cumulative IPC: 1.708 (Simulation time: 02 hr 30 min 29 sec)
Heartbeat CPU 0 instructions: 290000001 cycles: 152567005 heartbeat IPC: 1.857 cumulative IPC: 1.714 (Simulation time: 02 hr 35 min 57 sec)
Heartbeat CPU 0 instructions: 300000003 cycles: 157650498 heartbeat IPC: 1.967 cumulative IPC: 1.723 (Simulation time: 02 hr 41 min 20 sec)
Heartbeat CPU 0 instructions: 310000001 cycles: 162978189 heartbeat IPC: 1.877 cumulative IPC: 1.728 (Simulation time: 02 hr 46 min 48 sec)
Heartbeat CPU 0 instructions: 320000003 cycles: 168206211 heartbeat IPC: 1.913 cumulative IPC: 1.734 (Simulation time: 02 hr 52 min 14 sec)
Heartbeat CPU 0 instructions: 330000003 cycles: 173540109 heartbeat IPC: 1.875 cumulative IPC: 1.739 (Simulation time: 02 hr 57 min 41 sec)
Heartbeat CPU 0 instructions: 340000000 cycles: 184486796 heartbeat IPC: 0.9135 cumulative IPC: 1.687 (Simulation time: 03 hr 06 min 54 sec)
Heartbeat CPU 0 instructions: 350000000 cycles: 196259441 heartbeat IPC: 0.8494 cumulative IPC: 1.633 (Simulation time: 03 hr 16 min 44 sec)
Heartbeat CPU 0 instructions: 360000004 cycles: 207398870 heartbeat IPC: 0.8977 cumulative IPC: 1.591 (Simulation time: 03 hr 26 min 01 sec)
Heartbeat CPU 0 instructions: 370000000 cycles: 211825217 heartbeat IPC: 2.259 cumulative IPC: 1.606 (Simulation time: 03 hr 30 min 57 sec)
Heartbeat CPU 0 instructions: 380000001 cycles: 216774883 heartbeat IPC: 2.02 cumulative IPC: 1.616 (Simulation time: 03 hr 36 min 13 sec)
Heartbeat CPU 0 instructions: 390000002 cycles: 221614144 heartbeat IPC: 2.066 cumulative IPC: 1.626 (Simulation time: 03 hr 41 min 31 sec)
Heartbeat CPU 0 instructions: 400000004 cycles: 226555604 heartbeat IPC: 2.024 cumulative IPC: 1.635 (Simulation time: 03 hr 47 min 00 sec)
Heartbeat CPU 0 instructions: 410000000 cycles: 231305530 heartbeat IPC: 2.105 cumulative IPC: 1.646 (Simulation time: 03 hr 52 min 06 sec)
Heartbeat CPU 0 instructions: 420000000 cycles: 236516383 heartbeat IPC: 1.919 cumulative IPC: 1.652 (Simulation time: 03 hr 57 min 28 sec)
Heartbeat CPU 0 instructions: 430000001 cycles: 241008345 heartbeat IPC: 2.226 cumulative IPC: 1.663 (Simulation time: 04 hr 02 min 29 sec)
Heartbeat CPU 0 instructions: 440000000 cycles: 246383160 heartbeat IPC: 1.861 cumulative IPC: 1.668 (Simulation time: 04 hr 07 min 54 sec)
Heartbeat CPU 0 instructions: 450000002 cycles: 251070597 heartbeat IPC: 2.133 cumulative IPC: 1.677 (Simulation time: 04 hr 13 min 01 sec)
Heartbeat CPU 0 instructions: 460000000 cycles: 255883422 heartbeat IPC: 2.078 cumulative IPC: 1.685 (Simulation time: 04 hr 18 min 13 sec)
Heartbeat CPU 0 instructions: 470000000 cycles: 260877540 heartbeat IPC: 2.002 cumulative IPC: 1.691 (Simulation time: 04 hr 23 min 38 sec)
Heartbeat CPU 0 instructions: 480000003 cycles: 265691505 heartbeat IPC: 2.077 cumulative IPC: 1.699 (Simulation time: 04 hr 28 min 48 sec)
Heartbeat CPU 0 instructions: 490000000 cycles: 270317218 heartbeat IPC: 2.162 cumulative IPC: 1.707 (Simulation time: 04 hr 33 min 51 sec)
Heartbeat CPU 0 instructions: 500000000 cycles: 275354820 heartbeat IPC: 1.985 cumulative IPC: 1.712 (Simulation time: 04 hr 39 min 08 sec)
Heartbeat CPU 0 instructions: 510000003 cycles: 281018274 heartbeat IPC: 1.766 cumulative IPC: 1.713 (Simulation time: 04 hr 44 min 56 sec)
Heartbeat CPU 0 instructions: 520000001 cycles: 285733177 heartbeat IPC: 2.121 cumulative IPC: 1.72 (Simulation time: 04 hr 50 min 02 sec)
Heartbeat CPU 0 instructions: 530000002 cycles: 290889643 heartbeat IPC: 1.939 cumulative IPC: 1.724 (Simulation time: 04 hr 55 min 20 sec)
Heartbeat CPU 0 instructions: 540000000 cycles: 296017275 heartbeat IPC: 1.95 cumulative IPC: 1.729 (Simulation time: 05 hr 00 min 40 sec)
Heartbeat CPU 0 instructions: 550000001 cycles: 300835440 heartbeat IPC: 2.075 cumulative IPC: 1.734 (Simulation time: 05 hr 05 min 51 sec)
Heartbeat CPU 0 instructions: 560000000 cycles: 306088396 heartbeat IPC: 1.904 cumulative IPC: 1.737 (Simulation time: 05 hr 11 min 15 sec)
Heartbeat CPU 0 instructions: 570000004 cycles: 313560530 heartbeat IPC: 1.338 cumulative IPC: 1.727 (Simulation time: 05 hr 18 min 15 sec)
Heartbeat CPU 0 instructions: 580000003 cycles: 325893999 heartbeat IPC: 0.8108 cumulative IPC: 1.691 (Simulation time: 05 hr 28 min 40 sec)
Heartbeat CPU 0 instructions: 590000002 cycles: 339753218 heartbeat IPC: 0.7215 cumulative IPC: 1.65 (Simulation time: 05 hr 39 min 58 sec)
Heartbeat CPU 0 instructions: 600000000 cycles: 344369883 heartbeat IPC: 2.166 cumulative IPC: 1.657 (Simulation time: 05 hr 45 min 02 sec)
Heartbeat CPU 0 instructions: 610000002 cycles: 348877703 heartbeat IPC: 2.218 cumulative IPC: 1.665 (Simulation time: 05 hr 50 min 11 sec)
Heartbeat CPU 0 instructions: 620000000 cycles: 353696221 heartbeat IPC: 2.075 cumulative IPC: 1.671 (Simulation time: 05 hr 55 min 18 sec)
Heartbeat CPU 0 instructions: 630000002 cycles: 358797014 heartbeat IPC: 1.96 cumulative IPC: 1.675 (Simulation time: 06 hr 00 min 47 sec)
Heartbeat CPU 0 instructions: 640000001 cycles: 363651482 heartbeat IPC: 2.06 cumulative IPC: 1.68 (Simulation time: 06 hr 06 min 09 sec)
Heartbeat CPU 0 instructions: 650000000 cycles: 368213385 heartbeat IPC: 2.192 cumulative IPC: 1.687 (Simulation time: 06 hr 11 min 10 sec)
Simulation finished CPU 0 instructions: 600000001 cycles: 355676304 cumulative IPC: 1.687 (Simulation time: 06 hr 11 min 10 sec)
Simulation complete CPU 0 instructions: 600000001 cycles: 355676304 cumulative IPC: 1.687 (Simulation time: 06 hr 11 min 10 sec)

ChampSim completed all CPUs

=== Simulation ===
CPU 0 runs traces/400.perlbench-41B.champsimtrace.xz
Region of Interest Statistics

CPU 0 cumulative IPC: 1.687 instructions: 600000001 cycles: 355676304
CPU 0 Branch Prediction Accuracy: 93.95% MPKI: 12.5 Average ROB Occupancy at Mispredict: 29.63
Branch type MPKI
BRANCH_DIRECT_JUMP: 0.0123
BRANCH_INDIRECT: 0.323
BRANCH_CONDITIONAL: 12
BRANCH_DIRECT_CALL: 0.0043
BRANCH_INDIRECT_CALL: 0.2
BRANCH_RETURN: 0.00828

LLC TOTAL        ACCESS:     719950 HIT:     200377 MISS:     519573
LLC LOAD         ACCESS:     309546 HIT:      63495 MISS:     246051
LLC RFO          ACCESS:      25083 HIT:       8411 MISS:      16672
LLC PREFETCH     ACCESS:     305007 HIT:      59745 MISS:     245262
LLC WRITE        ACCESS:      64541 HIT:      63364 MISS:       1177
LLC TRANSLATION  ACCESS:      15773 HIT:       5362 MISS:      10411
LLC PREFETCH REQUESTED:     305007 ISSUED:     305007 USEFUL:       3519 USELESS:        343
LLC AVERAGE MISS LATENCY: 317.9 cycles
cpu0_DTLB TOTAL        ACCESS:  153660125 HIT:  152982665 MISS:     677460
cpu0_DTLB LOAD         ACCESS:  153660125 HIT:  152982665 MISS:     677460
cpu0_DTLB RFO          ACCESS:          0 HIT:          0 MISS:          0
cpu0_DTLB PREFETCH     ACCESS:          0 HIT:          0 MISS:          0
cpu0_DTLB WRITE        ACCESS:          0 HIT:          0 MISS:          0
cpu0_DTLB TRANSLATION  ACCESS:          0 HIT:          0 MISS:          0
cpu0_DTLB PREFETCH REQUESTED:          0 ISSUED:          0 USEFUL:          0 USELESS:          0
cpu0_DTLB AVERAGE MISS LATENCY: 17.03 cycles
cpu0_ITLB TOTAL        ACCESS:    4835204 HIT:    4777161 MISS:      58043
cpu0_ITLB LOAD         ACCESS:    4835204 HIT:    4777161 MISS:      58043
cpu0_ITLB RFO          ACCESS:          0 HIT:          0 MISS:          0
cpu0_ITLB PREFETCH     ACCESS:          0 HIT:          0 MISS:          0
cpu0_ITLB WRITE        ACCESS:          0 HIT:          0 MISS:          0
cpu0_ITLB TRANSLATION  ACCESS:          0 HIT:          0 MISS:          0
cpu0_ITLB PREFETCH REQUESTED:          0 ISSUED:          0 USEFUL:          0 USELESS:          0
cpu0_ITLB AVERAGE MISS LATENCY: 7.702 cycles
cpu0_L1D TOTAL        ACCESS:  200279448 HIT:  198933646 MISS:    1345802
cpu0_L1D LOAD         ACCESS:  117036070 HIT:  116002222 MISS:    1033848
cpu0_L1D RFO          ACCESS:          0 HIT:          0 MISS:          0
cpu0_L1D PREFETCH     ACCESS:          0 HIT:          0 MISS:          0
cpu0_L1D WRITE        ACCESS:   83218913 HIT:   82929847 MISS:     289066
cpu0_L1D TRANSLATION  ACCESS:      24465 HIT:       1577 MISS:      22888
cpu0_L1D PREFETCH REQUESTED:          0 ISSUED:          0 USEFUL:          0 USELESS:          0
cpu0_L1D AVERAGE MISS LATENCY: 123.1 cycles
cpu0_L1I TOTAL        ACCESS:    5577442 HIT:    4815344 MISS:     762098
cpu0_L1I LOAD         ACCESS:    5577442 HIT:    4815344 MISS:     762098
cpu0_L1I RFO          ACCESS:          0 HIT:          0 MISS:          0
cpu0_L1I PREFETCH     ACCESS:          0 HIT:          0 MISS:          0
cpu0_L1I WRITE        ACCESS:          0 HIT:          0 MISS:          0
cpu0_L1I TRANSLATION  ACCESS:          0 HIT:          0 MISS:          0
cpu0_L1I PREFETCH REQUESTED:          0 ISSUED:          0 USEFUL:          0 USELESS:          0
cpu0_L1I AVERAGE MISS LATENCY: 14.56 cycles
cpu0_L2C TOTAL        ACCESS:    1382541 HIT:    1031274 MISS:     351267
cpu0_L2C LOAD         ACCESS:    1125646 HIT:     816100 MISS:     309546
cpu0_L2C RFO          ACCESS:      63929 HIT:      38846 MISS:      25083
cpu0_L2C PREFETCH     ACCESS:          0 HIT:          0 MISS:          0
cpu0_L2C WRITE        ACCESS:     170154 HIT:     169289 MISS:        865
cpu0_L2C TRANSLATION  ACCESS:      22812 HIT:       7039 MISS:      15773
cpu0_L2C PREFETCH REQUESTED:          0 ISSUED:          0 USEFUL:          0 USELESS:          0
cpu0_L2C AVERAGE MISS LATENCY: 483.3 cycles
cpu0_STLB TOTAL        ACCESS:     505196 HIT:     482405 MISS:      22791
cpu0_STLB LOAD         ACCESS:     505196 HIT:     482405 MISS:      22791
cpu0_STLB RFO          ACCESS:          0 HIT:          0 MISS:          0
cpu0_STLB PREFETCH     ACCESS:          0 HIT:          0 MISS:          0
cpu0_STLB WRITE        ACCESS:          0 HIT:          0 MISS:          0
cpu0_STLB TRANSLATION  ACCESS:          0 HIT:          0 MISS:          0
cpu0_STLB PREFETCH REQUESTED:          0 ISSUED:          0 USEFUL:          0 USELESS:          0
cpu0_STLB AVERAGE MISS LATENCY: 388.3 cycles

DRAM Statistics

Channel 0 RQ ROW_BUFFER_HIT:      73150
  ROW_BUFFER_MISS:     312065
 AVG DBUS CONGESTED CYCLE: 3.861
WQ ROW_BUFFER_HIT: Channel 0 
  ROW_BUFFER_MISS:       5646
  FULL:      39750
