WARNING: physical memory size is smaller than virtual memory size.

*** ChampSim Multicore Out-of-Order Simulator ***
Warmup Instructions: 50000000
Simulation Instructions: 600000000
Number of CPUs: 1
Page size: 4096

Off-chip DRAM Size: 4 GiB Channels: 1 Width: 64-bit Data Race: 3200 MT/s
Heartbeat CPU 0 instructions: 10000000 cycles: 2500062 heartbeat IPC: 4 cumulative IPC: 4 (Simulation time: 00 hr 03 min 31 sec)
Heartbeat CPU 0 instructions: 20000000 cycles: 5000062 heartbeat IPC: 4 cumulative IPC: 4 (Simulation time: 00 hr 07 min 04 sec)
Heartbeat CPU 0 instructions: 30000000 cycles: 7500062 heartbeat IPC: 4 cumulative IPC: 4 (Simulation time: 00 hr 10 min 32 sec)
Heartbeat CPU 0 instructions: 40000000 cycles: 10000062 heartbeat IPC: 4 cumulative IPC: 4 (Simulation time: 00 hr 14 min 01 sec)
Heartbeat CPU 0 instructions: 50000000 cycles: 12500062 heartbeat IPC: 4 cumulative IPC: 4 (Simulation time: 00 hr 17 min 34 sec)
Warmup finished CPU 0 instructions: 50000000 cycles: 12500063 cumulative IPC: 4 (Simulation time: 00 hr 17 min 34 sec)
Warmup complete CPU 0 instructions: 50000000 cycles: 12500063 cumulative IPC: 4 (Simulation time: 00 hr 17 min 34 sec)
Heartbeat CPU 0 instructions: 60000002 cycles: 16266337 heartbeat IPC: 2.655 cumulative IPC: 2.655 (Simulation time: 00 hr 22 min 25 sec)
Heartbeat CPU 0 instructions: 70000003 cycles: 20451944 heartbeat IPC: 2.389 cumulative IPC: 2.515 (Simulation time: 00 hr 27 min 18 sec)
Heartbeat CPU 0 instructions: 80000003 cycles: 24692684 heartbeat IPC: 2.358 cumulative IPC: 2.461 (Simulation time: 00 hr 32 min 12 sec)
Heartbeat CPU 0 instructions: 90000000 cycles: 27949197 heartbeat IPC: 3.071 cumulative IPC: 2.589 (Simulation time: 00 hr 36 min 39 sec)
Heartbeat CPU 0 instructions: 100000003 cycles: 31984999 heartbeat IPC: 2.478 cumulative IPC: 2.566 (Simulation time: 00 hr 41 min 27 sec)
Heartbeat CPU 0 instructions: 110000002 cycles: 35972446 heartbeat IPC: 2.508 cumulative IPC: 2.556 (Simulation time: 00 hr 46 min 14 sec)
Heartbeat CPU 0 instructions: 120000001 cycles: 39542703 heartbeat IPC: 2.801 cumulative IPC: 2.589 (Simulation time: 00 hr 50 min 51 sec)
Heartbeat CPU 0 instructions: 130000003 cycles: 43231947 heartbeat IPC: 2.711 cumulative IPC: 2.603 (Simulation time: 00 hr 55 min 29 sec)
Heartbeat CPU 0 instructions: 140000002 cycles: 47194668 heartbeat IPC: 2.524 cumulative IPC: 2.594 (Simulation time: 01 hr 00 min 13 sec)
Heartbeat CPU 0 instructions: 150000001 cycles: 51104965 heartbeat IPC: 2.557 cumulative IPC: 2.59 (Simulation time: 01 hr 04 min 58 sec)
Heartbeat CPU 0 instructions: 160000000 cycles: 54761563 heartbeat IPC: 2.735 cumulative IPC: 2.603 (Simulation time: 01 hr 09 min 37 sec)
Heartbeat CPU 0 instructions: 170000001 cycles: 58740635 heartbeat IPC: 2.513 cumulative IPC: 2.595 (Simulation time: 01 hr 14 min 25 sec)
Heartbeat CPU 0 instructions: 180000001 cycles: 62178146 heartbeat IPC: 2.909 cumulative IPC: 2.617 (Simulation time: 01 hr 18 min 53 sec)
Heartbeat CPU 0 instructions: 190000002 cycles: 65656960 heartbeat IPC: 2.875 cumulative IPC: 2.634 (Simulation time: 01 hr 23 min 26 sec)
Heartbeat CPU 0 instructions: 200000002 cycles: 69419482 heartbeat IPC: 2.658 cumulative IPC: 2.635 (Simulation time: 01 hr 28 min 09 sec)
Heartbeat CPU 0 instructions: 210000000 cycles: 72971106 heartbeat IPC: 2.816 cumulative IPC: 2.646 (Simulation time: 01 hr 32 min 42 sec)
Heartbeat CPU 0 instructions: 220000001 cycles: 76681588 heartbeat IPC: 2.695 cumulative IPC: 2.649 (Simulation time: 01 hr 37 min 23 sec)
Heartbeat CPU 0 instructions: 230000002 cycles: 80407180 heartbeat IPC: 2.684 cumulative IPC: 2.651 (Simulation time: 01 hr 42 min 01 sec)
Heartbeat CPU 0 instructions: 240000004 cycles: 84405365 heartbeat IPC: 2.501 cumulative IPC: 2.642 (Simulation time: 01 hr 46 min 49 sec)
Heartbeat CPU 0 instructions: 250000003 cycles: 88759443 heartbeat IPC: 2.297 cumulative IPC: 2.623 (Simulation time: 01 hr 51 min 49 sec)
Heartbeat CPU 0 instructions: 260000001 cycles: 92432004 heartbeat IPC: 2.723 cumulative IPC: 2.627 (Simulation time: 01 hr 56 min 27 sec)
Heartbeat CPU 0 instructions: 270000003 cycles: 99923619 heartbeat IPC: 1.335 cumulative IPC: 2.516 (Simulation time: 02 hr 03 min 29 sec)
Heartbeat CPU 0 instructions: 280000000 cycles: 113253818 heartbeat IPC: 0.7502 cumulative IPC: 2.283 (Simulation time: 02 hr 14 min 24 sec)
Heartbeat CPU 0 instructions: 290000000 cycles: 126418564 heartbeat IPC: 0.7596 cumulative IPC: 2.107 (Simulation time: 02 hr 25 min 16 sec)
Heartbeat CPU 0 instructions: 300000000 cycles: 135233758 heartbeat IPC: 1.134 cumulative IPC: 2.037 (Simulation time: 02 hr 33 min 43 sec)
Heartbeat CPU 0 instructions: 310000004 cycles: 148347863 heartbeat IPC: 0.7625 cumulative IPC: 1.914 (Simulation time: 02 hr 44 min 46 sec)
Heartbeat CPU 0 instructions: 320000004 cycles: 154151314 heartbeat IPC: 1.723 cumulative IPC: 1.906 (Simulation time: 02 hr 50 min 54 sec)
Heartbeat CPU 0 instructions: 330000000 cycles: 158140997 heartbeat IPC: 2.506 cumulative IPC: 1.923 (Simulation time: 02 hr 55 min 50 sec)
Heartbeat CPU 0 instructions: 340000001 cycles: 162112568 heartbeat IPC: 2.518 cumulative IPC: 1.938 (Simulation time: 03 hr 00 min 51 sec)
Heartbeat CPU 0 instructions: 350000004 cycles: 166070224 heartbeat IPC: 2.527 cumulative IPC: 1.954 (Simulation time: 03 hr 05 min 45 sec)
Heartbeat CPU 0 instructions: 360000003 cycles: 169775545 heartbeat IPC: 2.699 cumulative IPC: 1.971 (Simulation time: 03 hr 10 min 30 sec)
Heartbeat CPU 0 instructions: 370000001 cycles: 173431045 heartbeat IPC: 2.736 cumulative IPC: 1.988 (Simulation time: 03 hr 15 min 10 sec)
Heartbeat CPU 0 instructions: 380000004 cycles: 177071477 heartbeat IPC: 2.747 cumulative IPC: 2.005 (Simulation time: 03 hr 20 min 00 sec)
Heartbeat CPU 0 instructions: 390000002 cycles: 181158228 heartbeat IPC: 2.447 cumulative IPC: 2.016 (Simulation time: 03 hr 25 min 04 sec)
Heartbeat CPU 0 instructions: 400000000 cycles: 185590302 heartbeat IPC: 2.256 cumulative IPC: 2.022 (Simulation time: 03 hr 30 min 13 sec)
Heartbeat CPU 0 instructions: 410000000 cycles: 194635375 heartbeat IPC: 1.106 cumulative IPC: 1.977 (Simulation time: 03 hr 38 min 27 sec)
Heartbeat CPU 0 instructions: 420000001 cycles: 208429649 heartbeat IPC: 0.7249 cumulative IPC: 1.888 (Simulation time: 03 hr 49 min 44 sec)
Heartbeat CPU 0 instructions: 430000002 cycles: 217277424 heartbeat IPC: 1.13 cumulative IPC: 1.856 (Simulation time: 03 hr 58 min 01 sec)
Heartbeat CPU 0 instructions: 440000002 cycles: 226681890 heartbeat IPC: 1.063 cumulative IPC: 1.821 (Simulation time: 04 hr 06 min 35 sec)
Heartbeat CPU 0 instructions: 450000000 cycles: 235573737 heartbeat IPC: 1.125 cumulative IPC: 1.793 (Simulation time: 04 hr 14 min 49 sec)
Heartbeat CPU 0 instructions: 460000002 cycles: 251099191 heartbeat IPC: 0.6441 cumulative IPC: 1.718 (Simulation time: 04 hr 27 min 14 sec)
Heartbeat CPU 0 instructions: 470000003 cycles: 262713464 heartbeat IPC: 0.861 cumulative IPC: 1.679 (Simulation time: 04 hr 37 min 05 sec)
Heartbeat CPU 0 instructions: 480000003 cycles: 267057856 heartbeat IPC: 2.302 cumulative IPC: 1.689 (Simulation time: 04 hr 42 min 17 sec)
Heartbeat CPU 0 instructions: 490000001 cycles: 270868805 heartbeat IPC: 2.624 cumulative IPC: 1.703 (Simulation time: 04 hr 47 min 14 sec)
Heartbeat CPU 0 instructions: 500000002 cycles: 274708674 heartbeat IPC: 2.604 cumulative IPC: 1.716 (Simulation time: 04 hr 52 min 06 sec)
Heartbeat CPU 0 instructions: 510000000 cycles: 278717697 heartbeat IPC: 2.494 cumulative IPC: 1.728 (Simulation time: 04 hr 57 min 05 sec)
Heartbeat CPU 0 instructions: 520000000 cycles: 283238077 heartbeat IPC: 2.212 cumulative IPC: 1.736 (Simulation time: 05 hr 02 min 22 sec)
Heartbeat CPU 0 instructions: 530000001 cycles: 297798981 heartbeat IPC: 0.6868 cumulative IPC: 1.682 (Simulation time: 05 hr 13 min 59 sec)
Heartbeat CPU 0 instructions: 540000000 cycles: 312338253 heartbeat IPC: 0.6878 cumulative IPC: 1.634 (Simulation time: 05 hr 26 min 03 sec)
Heartbeat CPU 0 instructions: 550000002 cycles: 328217619 heartbeat IPC: 0.6297 cumulative IPC: 1.584 (Simulation time: 05 hr 38 min 41 sec)
Heartbeat CPU 0 instructions: 560000004 cycles: 333021471 heartbeat IPC: 2.082 cumulative IPC: 1.591 (Simulation time: 05 hr 44 min 13 sec)
Heartbeat CPU 0 instructions: 570000001 cycles: 336160244 heartbeat IPC: 3.186 cumulative IPC: 1.607 (Simulation time: 05 hr 48 min 37 sec)
Heartbeat CPU 0 instructions: 580000003 cycles: 339659804 heartbeat IPC: 2.858 cumulative IPC: 1.62 (Simulation time: 05 hr 53 min 28 sec)
Heartbeat CPU 0 instructions: 590000001 cycles: 343224967 heartbeat IPC: 2.805 cumulative IPC: 1.633 (Simulation time: 05 hr 58 min 13 sec)
Heartbeat CPU 0 instructions: 600000003 cycles: 346205899 heartbeat IPC: 3.355 cumulative IPC: 1.648 (Simulation time: 06 hr 02 min 36 sec)
Heartbeat CPU 0 instructions: 610000001 cycles: 349709092 heartbeat IPC: 2.855 cumulative IPC: 1.661 (Simulation time: 06 hr 07 min 15 sec)
Heartbeat CPU 0 instructions: 620000000 cycles: 353243715 heartbeat IPC: 2.829 cumulative IPC: 1.673 (Simulation time: 06 hr 11 min 56 sec)
Heartbeat CPU 0 instructions: 630000002 cycles: 356440071 heartbeat IPC: 3.129 cumulative IPC: 1.686 (Simulation time: 06 hr 16 min 20 sec)
Heartbeat CPU 0 instructions: 640000004 cycles: 360167417 heartbeat IPC: 2.683 cumulative IPC: 1.697 (Simulation time: 06 hr 21 min 09 sec)
Heartbeat CPU 0 instructions: 650000001 cycles: 363557486 heartbeat IPC: 2.95 cumulative IPC: 1.709 (Simulation time: 06 hr 25 min 40 sec)
Simulation finished CPU 0 instructions: 600000001 cycles: 351057424 cumulative IPC: 1.709 (Simulation time: 06 hr 25 min 40 sec)
Simulation complete CPU 0 instructions: 600000001 cycles: 351057424 cumulative IPC: 1.709 (Simulation time: 06 hr 25 min 40 sec)

ChampSim completed all CPUs

=== Simulation ===
CPU 0 runs traces/400.perlbench-50B.champsimtrace.xz
Region of Interest Statistics

CPU 0 cumulative IPC: 1.709 instructions: 600000001 cycles: 351057424
CPU 0 Branch Prediction Accuracy: 96.09% MPKI: 8.064 Average ROB Occupancy at Mispredict: 40.74
Branch type MPKI
BRANCH_DIRECT_JUMP: 0.0176
BRANCH_INDIRECT: 0.38
BRANCH_CONDITIONAL: 7.21
BRANCH_DIRECT_CALL: 0.0067
BRANCH_INDIRECT_CALL: 0.431
BRANCH_RETURN: 0.0161

LLC TOTAL        ACCESS:     839799 HIT:     197667 MISS:     642132
LLC LOAD         ACCESS:     378598 HIT:     126524 MISS:     252074
LLC RFO          ACCESS:      32611 HIT:       4911 MISS:      27700
LLC PREFETCH     ACCESS:     326345 HIT:      57172 MISS:     269173
LLC WRITE        ACCESS:      83862 HIT:       8521 MISS:      75341
LLC TRANSLATION  ACCESS:      18383 HIT:        539 MISS:      17844
LLC PREFETCH REQUESTED:     326717 ISSUED:     326345 USEFUL:      88202 USELESS:     157085
LLC AVERAGE MISS LATENCY: 608.5 cycles
cpu0_DTLB TOTAL        ACCESS:  146221824 HIT:  144928686 MISS:    1293138
cpu0_DTLB LOAD         ACCESS:  146221824 HIT:  144928686 MISS:    1293138
cpu0_DTLB RFO          ACCESS:          0 HIT:          0 MISS:          0
cpu0_DTLB PREFETCH     ACCESS:          0 HIT:          0 MISS:          0
cpu0_DTLB WRITE        ACCESS:          0 HIT:          0 MISS:          0
cpu0_DTLB TRANSLATION  ACCESS:          0 HIT:          0 MISS:          0
cpu0_DTLB PREFETCH REQUESTED:          0 ISSUED:          0 USEFUL:          0 USELESS:          0
cpu0_DTLB AVERAGE MISS LATENCY: 15.77 cycles
cpu0_ITLB TOTAL        ACCESS:    8992232 HIT:    8819638 MISS:     172594
cpu0_ITLB LOAD         ACCESS:    8992232 HIT:    8819638 MISS:     172594
cpu0_ITLB RFO          ACCESS:          0 HIT:          0 MISS:          0
cpu0_ITLB PREFETCH     ACCESS:          0 HIT:          0 MISS:          0
cpu0_ITLB WRITE        ACCESS:          0 HIT:          0 MISS:          0
cpu0_ITLB TRANSLATION  ACCESS:          0 HIT:          0 MISS:          0
cpu0_ITLB PREFETCH REQUESTED:          0 ISSUED:          0 USEFUL:          0 USELESS:          0
cpu0_ITLB AVERAGE MISS LATENCY: 4.873 cycles
cpu0_L1D TOTAL        ACCESS:  192975451 HIT:  190169339 MISS:    2806112
cpu0_L1D LOAD         ACCESS:  107157894 HIT:  104855116 MISS:    2302778
cpu0_L1D RFO          ACCESS:          0 HIT:          0 MISS:          0
cpu0_L1D PREFETCH     ACCESS:          0 HIT:          0 MISS:          0
cpu0_L1D WRITE        ACCESS:   85789026 HIT:   85312204 MISS:     476822
cpu0_L1D TRANSLATION  ACCESS:      28531 HIT:       2019 MISS:      26512
cpu0_L1D PREFETCH REQUESTED:          0 ISSUED:          0 USEFUL:          0 USELESS:          0
cpu0_L1D AVERAGE MISS LATENCY: 65.48 cycles
cpu0_L1I TOTAL        ACCESS:   10426546 HIT:    8711176 MISS:    1715370
cpu0_L1I LOAD         ACCESS:   10426546 HIT:    8711176 MISS:    1715370
cpu0_L1I RFO          ACCESS:          0 HIT:          0 MISS:          0
cpu0_L1I PREFETCH     ACCESS:          0 HIT:          0 MISS:          0
cpu0_L1I WRITE        ACCESS:          0 HIT:          0 MISS:          0
cpu0_L1I TRANSLATION  ACCESS:          0 HIT:          0 MISS:          0
cpu0_L1I PREFETCH REQUESTED:          0 ISSUED:          0 USEFUL:          0 USELESS:          0
cpu0_L1I AVERAGE MISS LATENCY: 18.41 cycles
cpu0_L2C TOTAL        ACCESS:    3232054 HIT:    2801526 MISS:     430528
cpu0_L2C LOAD         ACCESS:    2710513 HIT:    2331915 MISS:     378598
cpu0_L2C RFO          ACCESS:     132900 HIT:     100289 MISS:      32611
cpu0_L2C PREFETCH     ACCESS:          0 HIT:          0 MISS:          0
cpu0_L2C WRITE        ACCESS:     362187 HIT:     361251 MISS:        936
cpu0_L2C TRANSLATION  ACCESS:      26454 HIT:       8071 MISS:      18383
cpu0_L2C PREFETCH REQUESTED:          0 ISSUED:          0 USEFUL:          0 USELESS:          0
cpu0_L2C AVERAGE MISS LATENCY: 449.6 cycles
cpu0_STLB TOTAL        ACCESS:    1009422 HIT:     982726 MISS:      26696
cpu0_STLB LOAD         ACCESS:    1009422 HIT:     982726 MISS:      26696
cpu0_STLB RFO          ACCESS:          0 HIT:          0 MISS:          0
cpu0_STLB PREFETCH     ACCESS:          0 HIT:          0 MISS:          0
cpu0_STLB WRITE        ACCESS:          0 HIT:          0 MISS:          0
cpu0_STLB TRANSLATION  ACCESS:          0 HIT:          0 MISS:          0
cpu0_STLB PREFETCH REQUESTED:          0 ISSUED:          0 USEFUL:          0 USELESS:          0
cpu0_STLB AVERAGE MISS LATENCY: 550.3 cycles

DRAM Statistics

Channel 0 RQ ROW_BUFFER_HIT:     170350
  ROW_BUFFER_MISS:     383236
 AVG DBUS CONGESTED CYCLE: 3.909
WQ ROW_BUFFER_HIT: Channel 0 
  ROW_BUFFER_MISS:       9140
  FULL:      66703
