WARNING: physical memory size is smaller than virtual memory size.

*** ChampSim Multicore Out-of-Order Simulator ***
Warmup Instructions: 50000000
Simulation Instructions: 600000000
Number of CPUs: 1
Page size: 4096

CPU 0 Tage branch predictor
Off-chip DRAM Size: 4 GiB Channels: 1 Width: 64-bit Data Race: 3200 MT/s
Heartbeat CPU 0 instructions: 10000000 cycles: 2500061 heartbeat IPC: 4 cumulative IPC: 4 (Simulation time: 00 hr 03 min 07 sec)
Heartbeat CPU 0 instructions: 20000000 cycles: 5000061 heartbeat IPC: 4 cumulative IPC: 4 (Simulation time: 00 hr 06 min 41 sec)
Heartbeat CPU 0 instructions: 30000000 cycles: 7500061 heartbeat IPC: 4 cumulative IPC: 4 (Simulation time: 00 hr 11 min 03 sec)
Heartbeat CPU 0 instructions: 40000000 cycles: 10000061 heartbeat IPC: 4 cumulative IPC: 4 (Simulation time: 00 hr 15 min 17 sec)
Heartbeat CPU 0 instructions: 50000000 cycles: 12500061 heartbeat IPC: 4 cumulative IPC: 4 (Simulation time: 00 hr 19 min 24 sec)
Warmup finished CPU 0 instructions: 50000000 cycles: 12500062 cumulative IPC: 4 (Simulation time: 00 hr 19 min 24 sec)
Warmup complete CPU 0 instructions: 50000000 cycles: 12500062 cumulative IPC: 4 (Simulation time: 00 hr 19 min 24 sec)
Heartbeat CPU 0 instructions: 60000004 cycles: 15503998 heartbeat IPC: 3.329 cumulative IPC: 3.329 (Simulation time: 00 hr 24 min 22 sec)
Heartbeat CPU 0 instructions: 70000003 cycles: 18369852 heartbeat IPC: 3.489 cumulative IPC: 3.407 (Simulation time: 00 hr 29 min 16 sec)
Heartbeat CPU 0 instructions: 80000002 cycles: 21380918 heartbeat IPC: 3.321 cumulative IPC: 3.378 (Simulation time: 00 hr 34 min 13 sec)
Heartbeat CPU 0 instructions: 90000000 cycles: 24098695 heartbeat IPC: 3.679 cumulative IPC: 3.449 (Simulation time: 00 hr 38 min 58 sec)
Heartbeat CPU 0 instructions: 100000003 cycles: 26855195 heartbeat IPC: 3.628 cumulative IPC: 3.483 (Simulation time: 00 hr 43 min 48 sec)
Heartbeat CPU 0 instructions: 110000001 cycles: 29752526 heartbeat IPC: 3.451 cumulative IPC: 3.478 (Simulation time: 00 hr 48 min 34 sec)
Heartbeat CPU 0 instructions: 120000001 cycles: 32468927 heartbeat IPC: 3.681 cumulative IPC: 3.505 (Simulation time: 00 hr 53 min 22 sec)
Heartbeat CPU 0 instructions: 130000003 cycles: 35368195 heartbeat IPC: 3.449 cumulative IPC: 3.498 (Simulation time: 00 hr 58 min 13 sec)
Heartbeat CPU 0 instructions: 140000002 cycles: 38202123 heartbeat IPC: 3.529 cumulative IPC: 3.502 (Simulation time: 01 hr 03 min 02 sec)
Heartbeat CPU 0 instructions: 150000001 cycles: 40972190 heartbeat IPC: 3.61 cumulative IPC: 3.512 (Simulation time: 01 hr 07 min 47 sec)
Heartbeat CPU 0 instructions: 160000000 cycles: 43889670 heartbeat IPC: 3.428 cumulative IPC: 3.504 (Simulation time: 01 hr 12 min 39 sec)
Heartbeat CPU 0 instructions: 170000001 cycles: 46817544 heartbeat IPC: 3.415 cumulative IPC: 3.497 (Simulation time: 01 hr 17 min 34 sec)
Heartbeat CPU 0 instructions: 180000000 cycles: 49608288 heartbeat IPC: 3.583 cumulative IPC: 3.503 (Simulation time: 01 hr 22 min 25 sec)
Heartbeat CPU 0 instructions: 190000002 cycles: 52316250 heartbeat IPC: 3.693 cumulative IPC: 3.516 (Simulation time: 01 hr 27 min 13 sec)
Heartbeat CPU 0 instructions: 200000002 cycles: 55136667 heartbeat IPC: 3.546 cumulative IPC: 3.518 (Simulation time: 01 hr 32 min 02 sec)
Heartbeat CPU 0 instructions: 210000000 cycles: 58029132 heartbeat IPC: 3.457 cumulative IPC: 3.514 (Simulation time: 01 hr 36 min 54 sec)
Heartbeat CPU 0 instructions: 220000001 cycles: 60781160 heartbeat IPC: 3.634 cumulative IPC: 3.521 (Simulation time: 01 hr 41 min 43 sec)
Heartbeat CPU 0 instructions: 230000002 cycles: 63670325 heartbeat IPC: 3.461 cumulative IPC: 3.518 (Simulation time: 01 hr 46 min 36 sec)
Heartbeat CPU 0 instructions: 240000004 cycles: 66621530 heartbeat IPC: 3.388 cumulative IPC: 3.511 (Simulation time: 01 hr 51 min 31 sec)
Heartbeat CPU 0 instructions: 250000003 cycles: 69511991 heartbeat IPC: 3.46 cumulative IPC: 3.508 (Simulation time: 01 hr 56 min 25 sec)
Heartbeat CPU 0 instructions: 260000001 cycles: 72297243 heartbeat IPC: 3.59 cumulative IPC: 3.512 (Simulation time: 02 hr 01 min 16 sec)
Heartbeat CPU 0 instructions: 270000002 cycles: 78112403 heartbeat IPC: 1.72 cumulative IPC: 3.353 (Simulation time: 02 hr 08 min 09 sec)
Heartbeat CPU 0 instructions: 280000000 cycles: 87506363 heartbeat IPC: 1.065 cumulative IPC: 3.066 (Simulation time: 02 hr 17 min 34 sec)
Heartbeat CPU 0 instructions: 290000000 cycles: 95270804 heartbeat IPC: 1.288 cumulative IPC: 2.9 (Simulation time: 02 hr 26 min 01 sec)
Heartbeat CPU 0 instructions: 300000003 cycles: 100394667 heartbeat IPC: 1.952 cumulative IPC: 2.844 (Simulation time: 02 hr 32 min 46 sec)
Heartbeat CPU 0 instructions: 310000001 cycles: 108325781 heartbeat IPC: 1.261 cumulative IPC: 2.713 (Simulation time: 02 hr 41 min 38 sec)
Heartbeat CPU 0 instructions: 320000004 cycles: 112017062 heartbeat IPC: 2.709 cumulative IPC: 2.713 (Simulation time: 02 hr 47 min 18 sec)
Heartbeat CPU 0 instructions: 330000000 cycles: 115174403 heartbeat IPC: 3.167 cumulative IPC: 2.727 (Simulation time: 02 hr 52 min 28 sec)
Heartbeat CPU 0 instructions: 340000001 cycles: 118353136 heartbeat IPC: 3.146 cumulative IPC: 2.74 (Simulation time: 02 hr 57 min 37 sec)
Heartbeat CPU 0 instructions: 350000000 cycles: 121689556 heartbeat IPC: 2.997 cumulative IPC: 2.748 (Simulation time: 03 hr 02 min 55 sec)
Heartbeat CPU 0 instructions: 360000004 cycles: 124827649 heartbeat IPC: 3.187 cumulative IPC: 2.76 (Simulation time: 03 hr 08 min 06 sec)
Heartbeat CPU 0 instructions: 370000001 cycles: 127922439 heartbeat IPC: 3.231 cumulative IPC: 2.772 (Simulation time: 03 hr 13 min 15 sec)
Heartbeat CPU 0 instructions: 380000004 cycles: 131026683 heartbeat IPC: 3.221 cumulative IPC: 2.784 (Simulation time: 03 hr 18 min 27 sec)
Heartbeat CPU 0 instructions: 390000002 cycles: 134276578 heartbeat IPC: 3.077 cumulative IPC: 2.792 (Simulation time: 03 hr 23 min 42 sec)
Heartbeat CPU 0 instructions: 400000000 cycles: 137577893 heartbeat IPC: 3.029 cumulative IPC: 2.798 (Simulation time: 03 hr 28 min 55 sec)
Heartbeat CPU 0 instructions: 410000000 cycles: 143866051 heartbeat IPC: 1.59 cumulative IPC: 2.74 (Simulation time: 03 hr 36 min 14 sec)
Heartbeat CPU 0 instructions: 420000003 cycles: 152875047 heartbeat IPC: 1.11 cumulative IPC: 2.636 (Simulation time: 03 hr 45 min 33 sec)
Heartbeat CPU 0 instructions: 430000004 cycles: 158388594 heartbeat IPC: 1.814 cumulative IPC: 2.605 (Simulation time: 03 hr 52 min 40 sec)
Heartbeat CPU 0 instructions: 440000004 cycles: 163759894 heartbeat IPC: 1.862 cumulative IPC: 2.578 (Simulation time: 03 hr 59 min 40 sec)
Heartbeat CPU 0 instructions: 450000000 cycles: 168601914 heartbeat IPC: 2.065 cumulative IPC: 2.562 (Simulation time: 04 hr 06 min 15 sec)
Heartbeat CPU 0 instructions: 460000002 cycles: 176797593 heartbeat IPC: 1.22 cumulative IPC: 2.495 (Simulation time: 04 hr 15 min 04 sec)
Heartbeat CPU 0 instructions: 470000003 cycles: 183944694 heartbeat IPC: 1.399 cumulative IPC: 2.45 (Simulation time: 04 hr 23 min 09 sec)
Heartbeat CPU 0 instructions: 480000000 cycles: 187331476 heartbeat IPC: 2.953 cumulative IPC: 2.46 (Simulation time: 04 hr 28 min 27 sec)
Heartbeat CPU 0 instructions: 490000001 cycles: 190961384 heartbeat IPC: 2.755 cumulative IPC: 2.466 (Simulation time: 04 hr 33 min 55 sec)
Heartbeat CPU 0 instructions: 500000002 cycles: 194467750 heartbeat IPC: 2.852 cumulative IPC: 2.473 (Simulation time: 04 hr 39 min 25 sec)
Heartbeat CPU 0 instructions: 510000000 cycles: 197921305 heartbeat IPC: 2.896 cumulative IPC: 2.481 (Simulation time: 04 hr 44 min 54 sec)
Heartbeat CPU 0 instructions: 520000000 cycles: 201415074 heartbeat IPC: 2.862 cumulative IPC: 2.488 (Simulation time: 04 hr 50 min 18 sec)
Heartbeat CPU 0 instructions: 530000001 cycles: 210696945 heartbeat IPC: 1.077 cumulative IPC: 2.422 (Simulation time: 04 hr 59 min 35 sec)
Heartbeat CPU 0 instructions: 540000000 cycles: 219503022 heartbeat IPC: 1.136 cumulative IPC: 2.367 (Simulation time: 05 hr 08 min 53 sec)
Heartbeat CPU 0 instructions: 550000004 cycles: 229518344 heartbeat IPC: 0.9985 cumulative IPC: 2.304 (Simulation time: 05 hr 18 min 51 sec)
Heartbeat CPU 0 instructions: 560000004 cycles: 233017988 heartbeat IPC: 2.857 cumulative IPC: 2.313 (Simulation time: 05 hr 24 min 09 sec)
Heartbeat CPU 0 instructions: 570000002 cycles: 235837189 heartbeat IPC: 3.547 cumulative IPC: 2.328 (Simulation time: 05 hr 29 min 04 sec)
Heartbeat CPU 0 instructions: 580000000 cycles: 238761051 heartbeat IPC: 3.42 cumulative IPC: 2.342 (Simulation time: 05 hr 34 min 17 sec)
Heartbeat CPU 0 instructions: 590000001 cycles: 241688000 heartbeat IPC: 3.417 cumulative IPC: 2.356 (Simulation time: 05 hr 39 min 40 sec)
Heartbeat CPU 0 instructions: 600000003 cycles: 244380780 heartbeat IPC: 3.714 cumulative IPC: 2.372 (Simulation time: 05 hr 44 min 46 sec)
Heartbeat CPU 0 instructions: 610000001 cycles: 247243491 heartbeat IPC: 3.493 cumulative IPC: 2.386 (Simulation time: 05 hr 49 min 46 sec)
Heartbeat CPU 0 instructions: 620000004 cycles: 250195680 heartbeat IPC: 3.387 cumulative IPC: 2.398 (Simulation time: 05 hr 55 min 02 sec)
Heartbeat CPU 0 instructions: 630000002 cycles: 253006806 heartbeat IPC: 3.557 cumulative IPC: 2.412 (Simulation time: 06 hr 00 min 14 sec)
Heartbeat CPU 0 instructions: 640000004 cycles: 256051713 heartbeat IPC: 3.284 cumulative IPC: 2.422 (Simulation time: 06 hr 05 min 36 sec)
Heartbeat CPU 0 instructions: 650000001 cycles: 258760324 heartbeat IPC: 3.692 cumulative IPC: 2.436 (Simulation time: 06 hr 10 min 51 sec)
Simulation finished CPU 0 instructions: 600000001 cycles: 246260263 cumulative IPC: 2.436 (Simulation time: 06 hr 10 min 51 sec)
Simulation complete CPU 0 instructions: 600000001 cycles: 246260263 cumulative IPC: 2.436 (Simulation time: 06 hr 10 min 51 sec)

ChampSim completed all CPUs

=== Simulation ===
CPU 0 runs traces/400.perlbench-50B.champsimtrace.xz
Region of Interest Statistics

CPU 0 cumulative IPC: 2.436 instructions: 600000001 cycles: 246260263
CPU 0 Branch Prediction Accuracy: 99.01% MPKI: 2.04 Average ROB Occupancy at Mispredict: 94.18
Branch type MPKI
BRANCH_DIRECT_JUMP: 0.0176
BRANCH_INDIRECT: 0.38
BRANCH_CONDITIONAL: 1.19
BRANCH_DIRECT_CALL: 0.0067
BRANCH_INDIRECT_CALL: 0.431
BRANCH_RETURN: 0.0161

LLC TOTAL        ACCESS:     511733 HIT:     191184 MISS:     320549
LLC LOAD         ACCESS:     376569 HIT:      98014 MISS:     278555
LLC RFO          ACCESS:      32838 HIT:      13078 MISS:      19760
LLC PREFETCH     ACCESS:          0 HIT:          0 MISS:          0
LLC WRITE        ACCESS:      84070 HIT:      74108 MISS:       9962
LLC TRANSLATION  ACCESS:      18256 HIT:       5984 MISS:      12272
LLC PREFETCH REQUESTED:          0 ISSUED:          0 USEFUL:          0 USELESS:          0
LLC AVERAGE MISS LATENCY: 585.8 cycles
cpu0_DTLB TOTAL        ACCESS:  133171256 HIT:  131821409 MISS:    1349847
cpu0_DTLB LOAD         ACCESS:  133171256 HIT:  131821409 MISS:    1349847
cpu0_DTLB RFO          ACCESS:          0 HIT:          0 MISS:          0
cpu0_DTLB PREFETCH     ACCESS:          0 HIT:          0 MISS:          0
cpu0_DTLB WRITE        ACCESS:          0 HIT:          0 MISS:          0
cpu0_DTLB TRANSLATION  ACCESS:          0 HIT:          0 MISS:          0
cpu0_DTLB PREFETCH REQUESTED:          0 ISSUED:          0 USEFUL:          0 USELESS:          0
cpu0_DTLB AVERAGE MISS LATENCY: 11.94 cycles
cpu0_ITLB TOTAL        ACCESS:    8999466 HIT:    8789081 MISS:     210385
cpu0_ITLB LOAD         ACCESS:    8999466 HIT:    8789081 MISS:     210385
cpu0_ITLB RFO          ACCESS:          0 HIT:          0 MISS:          0
cpu0_ITLB PREFETCH     ACCESS:          0 HIT:          0 MISS:          0
cpu0_ITLB WRITE        ACCESS:          0 HIT:          0 MISS:          0
cpu0_ITLB TRANSLATION  ACCESS:          0 HIT:          0 MISS:          0
cpu0_ITLB PREFETCH REQUESTED:          0 ISSUED:          0 USEFUL:          0 USELESS:          0
cpu0_ITLB AVERAGE MISS LATENCY: 2.982 cycles
cpu0_L1D TOTAL        ACCESS:  178239353 HIT:  175292763 MISS:    2946590
cpu0_L1D LOAD         ACCESS:   92722151 HIT:   90300941 MISS:    2421210
cpu0_L1D RFO          ACCESS:          0 HIT:          0 MISS:          0
cpu0_L1D PREFETCH     ACCESS:          0 HIT:          0 MISS:          0
cpu0_L1D WRITE        ACCESS:   85488667 HIT:   84989819 MISS:     498848
cpu0_L1D TRANSLATION  ACCESS:      28535 HIT:       2003 MISS:      26532
cpu0_L1D PREFETCH REQUESTED:          0 ISSUED:          0 USEFUL:          0 USELESS:          0
cpu0_L1D AVERAGE MISS LATENCY: 64.4 cycles
cpu0_L1I TOTAL        ACCESS:   10518513 HIT:    8617739 MISS:    1900774
cpu0_L1I LOAD         ACCESS:   10518513 HIT:    8617739 MISS:    1900774
cpu0_L1I RFO          ACCESS:          0 HIT:          0 MISS:          0
cpu0_L1I PREFETCH     ACCESS:          0 HIT:          0 MISS:          0
cpu0_L1I WRITE        ACCESS:          0 HIT:          0 MISS:          0
cpu0_L1I TRANSLATION  ACCESS:          0 HIT:          0 MISS:          0
cpu0_L1I PREFETCH REQUESTED:          0 ISSUED:          0 USEFUL:          0 USELESS:          0
cpu0_L1I AVERAGE MISS LATENCY: 10.31 cycles
cpu0_L2C TOTAL        ACCESS:    3236140 HIT:    2807498 MISS:     428642
cpu0_L2C LOAD         ACCESS:    2709179 HIT:    2332610 MISS:     376569
cpu0_L2C RFO          ACCESS:     135532 HIT:     102694 MISS:      32838
cpu0_L2C PREFETCH     ACCESS:          0 HIT:          0 MISS:          0
cpu0_L2C WRITE        ACCESS:     364978 HIT:     363999 MISS:        979
cpu0_L2C TRANSLATION  ACCESS:      26451 HIT:       8195 MISS:      18256
cpu0_L2C PREFETCH REQUESTED:          0 ISSUED:          0 USEFUL:          0 USELESS:          0
cpu0_L2C AVERAGE MISS LATENCY: 458.8 cycles
cpu0_STLB TOTAL        ACCESS:    1009749 HIT:     983056 MISS:      26693
cpu0_STLB LOAD         ACCESS:    1009749 HIT:     983056 MISS:      26693
cpu0_STLB RFO          ACCESS:          0 HIT:          0 MISS:          0
cpu0_STLB PREFETCH     ACCESS:          0 HIT:          0 MISS:          0
cpu0_STLB WRITE        ACCESS:          0 HIT:          0 MISS:          0
cpu0_STLB TRANSLATION  ACCESS:          0 HIT:          0 MISS:          0
cpu0_STLB PREFETCH REQUESTED:          0 ISSUED:          0 USEFUL:          0 USELESS:          0
cpu0_STLB AVERAGE MISS LATENCY: 403.2 cycles

DRAM Statistics

Channel 0 RQ ROW_BUFFER_HIT:      62052
  ROW_BUFFER_MISS:     248498
 AVG DBUS CONGESTED CYCLE: 3.828
WQ ROW_BUFFER_HIT: Channel 0 
  ROW_BUFFER_MISS:       5834
  FULL:      38765
