WARNING: physical memory size is smaller than virtual memory size.

*** ChampSim Multicore Out-of-Order Simulator ***
Warmup Instructions: 50000000
Simulation Instructions: 600000000
Number of CPUs: 1
Page size: 4096

Off-chip DRAM Size: 4 GiB Channels: 1 Width: 64-bit Data Race: 3200 MT/s
Heartbeat CPU 0 instructions: 10000000 cycles: 2500061 heartbeat IPC: 4 cumulative IPC: 4 (Simulation time: 00 hr 00 min 34 sec)
Heartbeat CPU 0 instructions: 20000000 cycles: 5000061 heartbeat IPC: 4 cumulative IPC: 4 (Simulation time: 00 hr 01 min 08 sec)
Heartbeat CPU 0 instructions: 30000000 cycles: 7500061 heartbeat IPC: 4 cumulative IPC: 4 (Simulation time: 00 hr 01 min 43 sec)
Heartbeat CPU 0 instructions: 40000000 cycles: 10000061 heartbeat IPC: 4 cumulative IPC: 4 (Simulation time: 00 hr 02 min 15 sec)
Heartbeat CPU 0 instructions: 50000000 cycles: 12500061 heartbeat IPC: 4 cumulative IPC: 4 (Simulation time: 00 hr 02 min 46 sec)
Warmup finished CPU 0 instructions: 50000000 cycles: 12500062 cumulative IPC: 4 (Simulation time: 00 hr 02 min 46 sec)
Warmup complete CPU 0 instructions: 50000000 cycles: 12500062 cumulative IPC: 4 (Simulation time: 00 hr 02 min 46 sec)
Heartbeat CPU 0 instructions: 60000002 cycles: 16906761 heartbeat IPC: 2.269 cumulative IPC: 2.269 (Simulation time: 00 hr 03 min 29 sec)
Heartbeat CPU 0 instructions: 70000003 cycles: 21887096 heartbeat IPC: 2.008 cumulative IPC: 2.131 (Simulation time: 00 hr 04 min 12 sec)
Heartbeat CPU 0 instructions: 80000001 cycles: 27228553 heartbeat IPC: 1.872 cumulative IPC: 2.037 (Simulation time: 00 hr 04 min 57 sec)
Heartbeat CPU 0 instructions: 90000000 cycles: 31524776 heartbeat IPC: 2.328 cumulative IPC: 2.103 (Simulation time: 00 hr 05 min 37 sec)
Heartbeat CPU 0 instructions: 100000003 cycles: 36376281 heartbeat IPC: 2.061 cumulative IPC: 2.094 (Simulation time: 00 hr 06 min 20 sec)
Heartbeat CPU 0 instructions: 110000002 cycles: 41243779 heartbeat IPC: 2.054 cumulative IPC: 2.087 (Simulation time: 00 hr 07 min 02 sec)
Heartbeat CPU 0 instructions: 120000001 cycles: 46237023 heartbeat IPC: 2.003 cumulative IPC: 2.075 (Simulation time: 00 hr 07 min 46 sec)
Heartbeat CPU 0 instructions: 130000003 cycles: 50803754 heartbeat IPC: 2.19 cumulative IPC: 2.089 (Simulation time: 00 hr 08 min 28 sec)
Heartbeat CPU 0 instructions: 140000002 cycles: 55691442 heartbeat IPC: 2.046 cumulative IPC: 2.084 (Simulation time: 00 hr 09 min 12 sec)
Heartbeat CPU 0 instructions: 150000001 cycles: 60355909 heartbeat IPC: 2.144 cumulative IPC: 2.09 (Simulation time: 00 hr 09 min 54 sec)
Heartbeat CPU 0 instructions: 160000000 cycles: 64991741 heartbeat IPC: 2.157 cumulative IPC: 2.096 (Simulation time: 00 hr 10 min 36 sec)
Heartbeat CPU 0 instructions: 170000000 cycles: 70320354 heartbeat IPC: 1.877 cumulative IPC: 2.075 (Simulation time: 00 hr 11 min 21 sec)
Heartbeat CPU 0 instructions: 180000001 cycles: 76037682 heartbeat IPC: 1.749 cumulative IPC: 2.046 (Simulation time: 00 hr 12 min 08 sec)
Heartbeat CPU 0 instructions: 190000002 cycles: 80505582 heartbeat IPC: 2.238 cumulative IPC: 2.059 (Simulation time: 00 hr 12 min 50 sec)
Heartbeat CPU 0 instructions: 200000002 cycles: 85404134 heartbeat IPC: 2.041 cumulative IPC: 2.057 (Simulation time: 00 hr 13 min 33 sec)
Heartbeat CPU 0 instructions: 210000000 cycles: 90405324 heartbeat IPC: 2 cumulative IPC: 2.054 (Simulation time: 00 hr 14 min 15 sec)
Heartbeat CPU 0 instructions: 220000001 cycles: 95326497 heartbeat IPC: 2.032 cumulative IPC: 2.052 (Simulation time: 00 hr 14 min 58 sec)
Heartbeat CPU 0 instructions: 230000002 cycles: 100570580 heartbeat IPC: 1.907 cumulative IPC: 2.044 (Simulation time: 00 hr 15 min 42 sec)
Heartbeat CPU 0 instructions: 240000001 cycles: 105532051 heartbeat IPC: 2.016 cumulative IPC: 2.042 (Simulation time: 00 hr 16 min 25 sec)
Heartbeat CPU 0 instructions: 250000003 cycles: 110706165 heartbeat IPC: 1.933 cumulative IPC: 2.037 (Simulation time: 00 hr 17 min 09 sec)
Heartbeat CPU 0 instructions: 260000001 cycles: 115563729 heartbeat IPC: 2.059 cumulative IPC: 2.038 (Simulation time: 00 hr 17 min 52 sec)
Heartbeat CPU 0 instructions: 270000000 cycles: 123277275 heartbeat IPC: 1.296 cumulative IPC: 1.986 (Simulation time: 00 hr 19 min 23 sec)
Heartbeat CPU 0 instructions: 280000000 cycles: 134819990 heartbeat IPC: 0.8663 cumulative IPC: 1.88 (Simulation time: 00 hr 21 min 50 sec)
Heartbeat CPU 0 instructions: 290000001 cycles: 145080607 heartbeat IPC: 0.9746 cumulative IPC: 1.81 (Simulation time: 00 hr 24 min 07 sec)
Heartbeat CPU 0 instructions: 300000003 cycles: 152660198 heartbeat IPC: 1.319 cumulative IPC: 1.784 (Simulation time: 00 hr 26 min 02 sec)
Heartbeat CPU 0 instructions: 310000004 cycles: 163879019 heartbeat IPC: 0.8914 cumulative IPC: 1.718 (Simulation time: 00 hr 27 min 51 sec)
Heartbeat CPU 0 instructions: 320000004 cycles: 169668347 heartbeat IPC: 1.727 cumulative IPC: 1.718 (Simulation time: 00 hr 28 min 41 sec)
Heartbeat CPU 0 instructions: 330000000 cycles: 174976934 heartbeat IPC: 1.884 cumulative IPC: 1.723 (Simulation time: 00 hr 29 min 27 sec)
Heartbeat CPU 0 instructions: 340000001 cycles: 180233899 heartbeat IPC: 1.902 cumulative IPC: 1.729 (Simulation time: 00 hr 30 min 13 sec)
Heartbeat CPU 0 instructions: 350000000 cycles: 185688658 heartbeat IPC: 1.833 cumulative IPC: 1.732 (Simulation time: 00 hr 30 min 59 sec)
Heartbeat CPU 0 instructions: 360000003 cycles: 190894380 heartbeat IPC: 1.921 cumulative IPC: 1.738 (Simulation time: 00 hr 31 min 45 sec)
Heartbeat CPU 0 instructions: 370000001 cycles: 196014592 heartbeat IPC: 1.953 cumulative IPC: 1.744 (Simulation time: 00 hr 32 min 29 sec)
Heartbeat CPU 0 instructions: 380000004 cycles: 201402619 heartbeat IPC: 1.856 cumulative IPC: 1.747 (Simulation time: 00 hr 33 min 16 sec)
Heartbeat CPU 0 instructions: 390000002 cycles: 206903768 heartbeat IPC: 1.818 cumulative IPC: 1.749 (Simulation time: 00 hr 34 min 04 sec)
Heartbeat CPU 0 instructions: 400000000 cycles: 212443690 heartbeat IPC: 1.805 cumulative IPC: 1.75 (Simulation time: 00 hr 34 min 51 sec)
Heartbeat CPU 0 instructions: 410000000 cycles: 220963366 heartbeat IPC: 1.174 cumulative IPC: 1.727 (Simulation time: 00 hr 35 min 54 sec)
Heartbeat CPU 0 instructions: 420000001 cycles: 232851456 heartbeat IPC: 0.8412 cumulative IPC: 1.679 (Simulation time: 00 hr 37 min 14 sec)
Heartbeat CPU 0 instructions: 430000000 cycles: 240425433 heartbeat IPC: 1.32 cumulative IPC: 1.667 (Simulation time: 00 hr 38 min 15 sec)
Heartbeat CPU 0 instructions: 440000002 cycles: 248170323 heartbeat IPC: 1.291 cumulative IPC: 1.655 (Simulation time: 00 hr 39 min 16 sec)
Heartbeat CPU 0 instructions: 450000000 cycles: 255234464 heartbeat IPC: 1.416 cumulative IPC: 1.648 (Simulation time: 00 hr 40 min 14 sec)
Heartbeat CPU 0 instructions: 460000002 cycles: 266915959 heartbeat IPC: 0.8561 cumulative IPC: 1.612 (Simulation time: 00 hr 41 min 34 sec)
Heartbeat CPU 0 instructions: 470000000 cycles: 277095029 heartbeat IPC: 0.9824 cumulative IPC: 1.587 (Simulation time: 00 hr 42 min 46 sec)
Heartbeat CPU 0 instructions: 480000000 cycles: 282628802 heartbeat IPC: 1.807 cumulative IPC: 1.592 (Simulation time: 00 hr 43 min 32 sec)
Heartbeat CPU 0 instructions: 490000001 cycles: 288301804 heartbeat IPC: 1.763 cumulative IPC: 1.595 (Simulation time: 00 hr 44 min 19 sec)
Heartbeat CPU 0 instructions: 500000002 cycles: 293907498 heartbeat IPC: 1.784 cumulative IPC: 1.599 (Simulation time: 00 hr 45 min 05 sec)
Heartbeat CPU 0 instructions: 510000000 cycles: 299514426 heartbeat IPC: 1.784 cumulative IPC: 1.603 (Simulation time: 00 hr 45 min 51 sec)
Heartbeat CPU 0 instructions: 520000000 cycles: 305152604 heartbeat IPC: 1.774 cumulative IPC: 1.606 (Simulation time: 00 hr 46 min 36 sec)
Heartbeat CPU 0 instructions: 530000001 cycles: 316421154 heartbeat IPC: 0.8874 cumulative IPC: 1.579 (Simulation time: 00 hr 47 min 50 sec)
Heartbeat CPU 0 instructions: 540000000 cycles: 327081080 heartbeat IPC: 0.9381 cumulative IPC: 1.558 (Simulation time: 00 hr 49 min 01 sec)
Heartbeat CPU 0 instructions: 550000002 cycles: 340068972 heartbeat IPC: 0.7699 cumulative IPC: 1.526 (Simulation time: 00 hr 50 min 19 sec)
Heartbeat CPU 0 instructions: 560000004 cycles: 344919990 heartbeat IPC: 2.061 cumulative IPC: 1.534 (Simulation time: 00 hr 50 min 58 sec)
Heartbeat CPU 0 instructions: 570000001 cycles: 349324798 heartbeat IPC: 2.27 cumulative IPC: 1.544 (Simulation time: 00 hr 51 min 33 sec)
Heartbeat CPU 0 instructions: 580000003 cycles: 353558556 heartbeat IPC: 2.362 cumulative IPC: 1.554 (Simulation time: 00 hr 52 min 08 sec)
Heartbeat CPU 0 instructions: 590000001 cycles: 358455717 heartbeat IPC: 2.042 cumulative IPC: 1.561 (Simulation time: 00 hr 52 min 42 sec)
Heartbeat CPU 0 instructions: 600000003 cycles: 363091979 heartbeat IPC: 2.157 cumulative IPC: 1.569 (Simulation time: 00 hr 53 min 14 sec)
Heartbeat CPU 0 instructions: 610000001 cycles: 367945019 heartbeat IPC: 2.061 cumulative IPC: 1.575 (Simulation time: 00 hr 53 min 44 sec)
Heartbeat CPU 0 instructions: 620000000 cycles: 373007516 heartbeat IPC: 1.975 cumulative IPC: 1.581 (Simulation time: 00 hr 54 min 08 sec)
Heartbeat CPU 0 instructions: 630000002 cycles: 377250413 heartbeat IPC: 2.357 cumulative IPC: 1.59 (Simulation time: 00 hr 54 min 28 sec)
Heartbeat CPU 0 instructions: 640000004 cycles: 382567659 heartbeat IPC: 1.881 cumulative IPC: 1.594 (Simulation time: 00 hr 54 min 48 sec)
Heartbeat CPU 0 instructions: 650000001 cycles: 387330160 heartbeat IPC: 2.1 cumulative IPC: 1.601 (Simulation time: 00 hr 55 min 06 sec)
Simulation finished CPU 0 instructions: 600000001 cycles: 374830099 cumulative IPC: 1.601 (Simulation time: 00 hr 55 min 06 sec)
Simulation complete CPU 0 instructions: 600000001 cycles: 374830099 cumulative IPC: 1.601 (Simulation time: 00 hr 55 min 06 sec)

ChampSim completed all CPUs

=== Simulation ===
CPU 0 runs traces/400.perlbench-50B.champsimtrace.xz
Region of Interest Statistics

CPU 0 cumulative IPC: 1.601 instructions: 600000001 cycles: 374830099
CPU 0 Branch Prediction Accuracy: 93.83% MPKI: 12.71 Average ROB Occupancy at Mispredict: 29.28
Branch type MPKI
BRANCH_DIRECT_JUMP: 0.0176
BRANCH_INDIRECT: 0.38
BRANCH_CONDITIONAL: 11.9
BRANCH_DIRECT_CALL: 0.0067
BRANCH_INDIRECT_CALL: 0.431
BRANCH_RETURN: 0.0161

LLC TOTAL        ACCESS:     568342 HIT:     222367 MISS:     345975
LLC LOAD         ACCESS:     376981 HIT:     113910 MISS:     263071
LLC RFO          ACCESS:      32796 HIT:      13718 MISS:      19078
LLC PREFETCH     ACCESS:      55895 HIT:      27152 MISS:      28743
LLC WRITE        ACCESS:      84541 HIT:      62882 MISS:      21659
LLC TRANSLATION  ACCESS:      18129 HIT:       4705 MISS:      13424
LLC PREFETCH REQUESTED:      55895 ISSUED:      55895 USEFUL:      18958 USELESS:       4218
LLC AVERAGE MISS LATENCY: 507.2 cycles
cpu0_DTLB TOTAL        ACCESS:  156757028 HIT:  155456709 MISS:    1300319
cpu0_DTLB LOAD         ACCESS:  156757028 HIT:  155456709 MISS:    1300319
cpu0_DTLB RFO          ACCESS:          0 HIT:          0 MISS:          0
cpu0_DTLB PREFETCH     ACCESS:          0 HIT:          0 MISS:          0
cpu0_DTLB WRITE        ACCESS:          0 HIT:          0 MISS:          0
cpu0_DTLB TRANSLATION  ACCESS:          0 HIT:          0 MISS:          0
cpu0_DTLB PREFETCH REQUESTED:          0 ISSUED:          0 USEFUL:          0 USELESS:          0
cpu0_DTLB AVERAGE MISS LATENCY: 12.75 cycles
cpu0_ITLB TOTAL        ACCESS:    8933745 HIT:    8734900 MISS:     198845
cpu0_ITLB LOAD         ACCESS:    8933745 HIT:    8734900 MISS:     198845
cpu0_ITLB RFO          ACCESS:          0 HIT:          0 MISS:          0
cpu0_ITLB PREFETCH     ACCESS:          0 HIT:          0 MISS:          0
cpu0_ITLB WRITE        ACCESS:          0 HIT:          0 MISS:          0
cpu0_ITLB TRANSLATION  ACCESS:          0 HIT:          0 MISS:          0
cpu0_ITLB PREFETCH REQUESTED:          0 ISSUED:          0 USEFUL:          0 USELESS:          0
cpu0_ITLB AVERAGE MISS LATENCY: 3.308 cycles
cpu0_L1D TOTAL        ACCESS:  203632346 HIT:  200789077 MISS:    2843269
cpu0_L1D LOAD         ACCESS:  117956252 HIT:  115620440 MISS:    2335812
cpu0_L1D RFO          ACCESS:          0 HIT:          0 MISS:          0
cpu0_L1D PREFETCH     ACCESS:          0 HIT:          0 MISS:          0
cpu0_L1D WRITE        ACCESS:   85647555 HIT:   85166648 MISS:     480907
cpu0_L1D TRANSLATION  ACCESS:      28539 HIT:       1989 MISS:      26550
cpu0_L1D PREFETCH REQUESTED:          0 ISSUED:          0 USEFUL:          0 USELESS:          0
cpu0_L1D AVERAGE MISS LATENCY: 60.49 cycles
cpu0_L1I TOTAL        ACCESS:   10372377 HIT:    8573308 MISS:    1799069
cpu0_L1I LOAD         ACCESS:   10372377 HIT:    8573308 MISS:    1799069
cpu0_L1I RFO          ACCESS:          0 HIT:          0 MISS:          0
cpu0_L1I PREFETCH     ACCESS:          0 HIT:          0 MISS:          0
cpu0_L1I WRITE        ACCESS:          0 HIT:          0 MISS:          0
cpu0_L1I TRANSLATION  ACCESS:          0 HIT:          0 MISS:          0
cpu0_L1I PREFETCH REQUESTED:          0 ISSUED:          0 USEFUL:          0 USELESS:          0
cpu0_L1I AVERAGE MISS LATENCY: 9.915 cycles
cpu0_L2C TOTAL        ACCESS:    3235477 HIT:    2806625 MISS:     428852
cpu0_L2C LOAD         ACCESS:    2711758 HIT:    2334777 MISS:     376981
cpu0_L2C RFO          ACCESS:     133706 HIT:     100910 MISS:      32796
cpu0_L2C PREFETCH     ACCESS:          0 HIT:          0 MISS:          0
cpu0_L2C WRITE        ACCESS:     363545 HIT:     362599 MISS:        946
cpu0_L2C TRANSLATION  ACCESS:      26468 HIT:       8339 MISS:      18129
cpu0_L2C PREFETCH REQUESTED:          0 ISSUED:          0 USEFUL:          0 USELESS:          0
cpu0_L2C AVERAGE MISS LATENCY: 390.6 cycles
cpu0_STLB TOTAL        ACCESS:    1009144 HIT:     982453 MISS:      26691
cpu0_STLB LOAD         ACCESS:    1009144 HIT:     982453 MISS:      26691
cpu0_STLB RFO          ACCESS:          0 HIT:          0 MISS:          0
cpu0_STLB PREFETCH     ACCESS:          0 HIT:          0 MISS:          0
cpu0_STLB WRITE        ACCESS:          0 HIT:          0 MISS:          0
cpu0_STLB TRANSLATION  ACCESS:          0 HIT:          0 MISS:          0
cpu0_STLB PREFETCH REQUESTED:          0 ISSUED:          0 USEFUL:          0 USELESS:          0
cpu0_STLB AVERAGE MISS LATENCY: 402.8 cycles

DRAM Statistics

Channel 0 RQ ROW_BUFFER_HIT:      62232
  ROW_BUFFER_MISS:     256793
 AVG DBUS CONGESTED CYCLE: 3.798
WQ ROW_BUFFER_HIT: Channel 0 
  ROW_BUFFER_MISS:       9320
  FULL:      33710
Final OPTGen Hits: 3779
Final OPTGen Access: 7035
Final OPTGEN Hit Rate: 53.7172
