WARNING: physical memory size is smaller than virtual memory size.

*** ChampSim Multicore Out-of-Order Simulator ***
Warmup Instructions: 50000000
Simulation Instructions: 600000000
Number of CPUs: 1
Page size: 4096

Off-chip DRAM Size: 4 GiB Channels: 1 Width: 64-bit Data Race: 3200 MT/s
Heartbeat CPU 0 instructions: 10000001 cycles: 2500319 heartbeat IPC: 3.999 cumulative IPC: 3.999 (Simulation time: 00 hr 03 min 19 sec)
Heartbeat CPU 0 instructions: 20000002 cycles: 5037098 heartbeat IPC: 3.942 cumulative IPC: 3.971 (Simulation time: 00 hr 07 min 08 sec)
Heartbeat CPU 0 instructions: 30000002 cycles: 7537098 heartbeat IPC: 4 cumulative IPC: 3.98 (Simulation time: 00 hr 10 min 48 sec)
Heartbeat CPU 0 instructions: 40000002 cycles: 10037098 heartbeat IPC: 4 cumulative IPC: 3.985 (Simulation time: 00 hr 14 min 22 sec)
Heartbeat CPU 0 instructions: 50000002 cycles: 12537098 heartbeat IPC: 4 cumulative IPC: 3.988 (Simulation time: 00 hr 17 min 57 sec)
Warmup finished CPU 0 instructions: 50000002 cycles: 12537099 cumulative IPC: 3.988 (Simulation time: 00 hr 17 min 57 sec)
Warmup complete CPU 0 instructions: 50000002 cycles: 12537099 cumulative IPC: 3.988 (Simulation time: 00 hr 17 min 57 sec)
Heartbeat CPU 0 instructions: 60000000 cycles: 17155845 heartbeat IPC: 2.165 cumulative IPC: 2.165 (Simulation time: 00 hr 23 min 05 sec)
Heartbeat CPU 0 instructions: 70000004 cycles: 21430779 heartbeat IPC: 2.339 cumulative IPC: 2.249 (Simulation time: 00 hr 28 min 05 sec)
Heartbeat CPU 0 instructions: 80000001 cycles: 26028774 heartbeat IPC: 2.175 cumulative IPC: 2.224 (Simulation time: 00 hr 33 min 18 sec)
Heartbeat CPU 0 instructions: 90000001 cycles: 30148093 heartbeat IPC: 2.428 cumulative IPC: 2.271 (Simulation time: 00 hr 38 min 11 sec)
Heartbeat CPU 0 instructions: 100000000 cycles: 34197842 heartbeat IPC: 2.469 cumulative IPC: 2.308 (Simulation time: 00 hr 43 min 04 sec)
Heartbeat CPU 0 instructions: 110000000 cycles: 38427107 heartbeat IPC: 2.364 cumulative IPC: 2.317 (Simulation time: 00 hr 48 min 01 sec)
Heartbeat CPU 0 instructions: 120000001 cycles: 42437356 heartbeat IPC: 2.494 cumulative IPC: 2.341 (Simulation time: 00 hr 52 min 54 sec)
Heartbeat CPU 0 instructions: 130000001 cycles: 46170992 heartbeat IPC: 2.678 cumulative IPC: 2.379 (Simulation time: 00 hr 57 min 41 sec)
Heartbeat CPU 0 instructions: 140000001 cycles: 50337123 heartbeat IPC: 2.4 cumulative IPC: 2.381 (Simulation time: 01 hr 02 min 43 sec)
Heartbeat CPU 0 instructions: 150000001 cycles: 54539344 heartbeat IPC: 2.38 cumulative IPC: 2.381 (Simulation time: 01 hr 07 min 45 sec)
Heartbeat CPU 0 instructions: 160000004 cycles: 58964068 heartbeat IPC: 2.26 cumulative IPC: 2.369 (Simulation time: 01 hr 12 min 49 sec)
Heartbeat CPU 0 instructions: 170000000 cycles: 66706960 heartbeat IPC: 1.292 cumulative IPC: 2.215 (Simulation time: 01 hr 20 min 37 sec)
Heartbeat CPU 0 instructions: 180000004 cycles: 76057649 heartbeat IPC: 1.069 cumulative IPC: 2.047 (Simulation time: 01 hr 29 min 23 sec)
Heartbeat CPU 0 instructions: 190000001 cycles: 86723854 heartbeat IPC: 0.9375 cumulative IPC: 1.887 (Simulation time: 01 hr 38 min 48 sec)
Heartbeat CPU 0 instructions: 200000004 cycles: 90520103 heartbeat IPC: 2.634 cumulative IPC: 1.923 (Simulation time: 01 hr 43 min 13 sec)
Heartbeat CPU 0 instructions: 210000001 cycles: 94450770 heartbeat IPC: 2.544 cumulative IPC: 1.953 (Simulation time: 01 hr 47 min 43 sec)
Heartbeat CPU 0 instructions: 220000000 cycles: 98412549 heartbeat IPC: 2.524 cumulative IPC: 1.98 (Simulation time: 01 hr 52 min 08 sec)
Heartbeat CPU 0 instructions: 230000002 cycles: 103106819 heartbeat IPC: 2.13 cumulative IPC: 1.987 (Simulation time: 01 hr 56 min 57 sec)
Heartbeat CPU 0 instructions: 240000000 cycles: 107313431 heartbeat IPC: 2.377 cumulative IPC: 2.005 (Simulation time: 02 hr 01 min 34 sec)
Heartbeat CPU 0 instructions: 250000000 cycles: 111641353 heartbeat IPC: 2.311 cumulative IPC: 2.018 (Simulation time: 02 hr 06 min 09 sec)
Heartbeat CPU 0 instructions: 260000000 cycles: 115816951 heartbeat IPC: 2.395 cumulative IPC: 2.033 (Simulation time: 02 hr 10 min 41 sec)
Heartbeat CPU 0 instructions: 270000002 cycles: 119670570 heartbeat IPC: 2.595 cumulative IPC: 2.054 (Simulation time: 02 hr 15 min 05 sec)
Heartbeat CPU 0 instructions: 280000002 cycles: 123838819 heartbeat IPC: 2.399 cumulative IPC: 2.066 (Simulation time: 02 hr 19 min 37 sec)
Heartbeat CPU 0 instructions: 290000001 cycles: 127749684 heartbeat IPC: 2.557 cumulative IPC: 2.083 (Simulation time: 02 hr 24 min 02 sec)
Heartbeat CPU 0 instructions: 300000003 cycles: 131582021 heartbeat IPC: 2.609 cumulative IPC: 2.1 (Simulation time: 02 hr 28 min 27 sec)
Heartbeat CPU 0 instructions: 310000001 cycles: 135729984 heartbeat IPC: 2.411 cumulative IPC: 2.111 (Simulation time: 02 hr 32 min 56 sec)
Heartbeat CPU 0 instructions: 320000003 cycles: 139822832 heartbeat IPC: 2.443 cumulative IPC: 2.121 (Simulation time: 02 hr 37 min 26 sec)
Heartbeat CPU 0 instructions: 330000003 cycles: 144247786 heartbeat IPC: 2.26 cumulative IPC: 2.126 (Simulation time: 02 hr 42 min 06 sec)
Heartbeat CPU 0 instructions: 340000000 cycles: 152172991 heartbeat IPC: 1.262 cumulative IPC: 2.077 (Simulation time: 02 hr 49 min 02 sec)
Heartbeat CPU 0 instructions: 350000000 cycles: 162088361 heartbeat IPC: 1.009 cumulative IPC: 2.006 (Simulation time: 02 hr 57 min 12 sec)
Heartbeat CPU 0 instructions: 360000004 cycles: 172660461 heartbeat IPC: 0.9459 cumulative IPC: 1.936 (Simulation time: 03 hr 05 min 43 sec)
Heartbeat CPU 0 instructions: 370000000 cycles: 176101176 heartbeat IPC: 2.906 cumulative IPC: 1.956 (Simulation time: 03 hr 09 min 55 sec)
Heartbeat CPU 0 instructions: 380000001 cycles: 179533884 heartbeat IPC: 2.913 cumulative IPC: 1.976 (Simulation time: 03 hr 14 min 09 sec)
Heartbeat CPU 0 instructions: 390000004 cycles: 183284353 heartbeat IPC: 2.666 cumulative IPC: 1.991 (Simulation time: 03 hr 18 min 34 sec)
Heartbeat CPU 0 instructions: 400000004 cycles: 187095740 heartbeat IPC: 2.624 cumulative IPC: 2.005 (Simulation time: 03 hr 22 min 57 sec)
Heartbeat CPU 0 instructions: 410000001 cycles: 190764303 heartbeat IPC: 2.726 cumulative IPC: 2.02 (Simulation time: 03 hr 27 min 11 sec)
Heartbeat CPU 0 instructions: 420000003 cycles: 194855212 heartbeat IPC: 2.444 cumulative IPC: 2.029 (Simulation time: 03 hr 31 min 39 sec)
Heartbeat CPU 0 instructions: 430000001 cycles: 198530942 heartbeat IPC: 2.721 cumulative IPC: 2.043 (Simulation time: 03 hr 35 min 59 sec)
Heartbeat CPU 0 instructions: 440000004 cycles: 202625024 heartbeat IPC: 2.443 cumulative IPC: 2.052 (Simulation time: 03 hr 40 min 30 sec)
Heartbeat CPU 0 instructions: 450000002 cycles: 206358649 heartbeat IPC: 2.678 cumulative IPC: 2.064 (Simulation time: 03 hr 44 min 49 sec)
Heartbeat CPU 0 instructions: 460000000 cycles: 210028375 heartbeat IPC: 2.725 cumulative IPC: 2.076 (Simulation time: 03 hr 49 min 05 sec)
Heartbeat CPU 0 instructions: 470000000 cycles: 213497803 heartbeat IPC: 2.882 cumulative IPC: 2.09 (Simulation time: 03 hr 53 min 18 sec)
Heartbeat CPU 0 instructions: 480000003 cycles: 217347833 heartbeat IPC: 2.597 cumulative IPC: 2.099 (Simulation time: 03 hr 57 min 40 sec)
Heartbeat CPU 0 instructions: 490000000 cycles: 220980163 heartbeat IPC: 2.753 cumulative IPC: 2.111 (Simulation time: 04 hr 01 min 54 sec)
Heartbeat CPU 0 instructions: 500000000 cycles: 224684426 heartbeat IPC: 2.7 cumulative IPC: 2.121 (Simulation time: 04 hr 06 min 13 sec)
Heartbeat CPU 0 instructions: 510000003 cycles: 228401319 heartbeat IPC: 2.69 cumulative IPC: 2.131 (Simulation time: 04 hr 10 min 34 sec)
Heartbeat CPU 0 instructions: 520000001 cycles: 231817544 heartbeat IPC: 2.927 cumulative IPC: 2.143 (Simulation time: 04 hr 14 min 46 sec)
Heartbeat CPU 0 instructions: 530000002 cycles: 235509364 heartbeat IPC: 2.709 cumulative IPC: 2.153 (Simulation time: 04 hr 19 min 04 sec)
Heartbeat CPU 0 instructions: 540000000 cycles: 239042991 heartbeat IPC: 2.83 cumulative IPC: 2.163 (Simulation time: 04 hr 23 min 18 sec)
Heartbeat CPU 0 instructions: 550000001 cycles: 242746250 heartbeat IPC: 2.7 cumulative IPC: 2.172 (Simulation time: 04 hr 27 min 48 sec)
Heartbeat CPU 0 instructions: 560000000 cycles: 246787501 heartbeat IPC: 2.474 cumulative IPC: 2.177 (Simulation time: 04 hr 32 min 17 sec)
Heartbeat CPU 0 instructions: 570000004 cycles: 252856560 heartbeat IPC: 1.648 cumulative IPC: 2.164 (Simulation time: 04 hr 38 min 03 sec)
Heartbeat CPU 0 instructions: 580000003 cycles: 260882496 heartbeat IPC: 1.246 cumulative IPC: 2.134 (Simulation time: 04 hr 45 min 06 sec)
Heartbeat CPU 0 instructions: 590000002 cycles: 274509168 heartbeat IPC: 0.7339 cumulative IPC: 2.061 (Simulation time: 04 hr 55 min 33 sec)
Heartbeat CPU 0 instructions: 600000000 cycles: 278315439 heartbeat IPC: 2.627 cumulative IPC: 2.069 (Simulation time: 04 hr 59 min 55 sec)
Heartbeat CPU 0 instructions: 610000000 cycles: 282178523 heartbeat IPC: 2.589 cumulative IPC: 2.077 (Simulation time: 05 hr 04 min 21 sec)
Heartbeat CPU 0 instructions: 620000001 cycles: 285616403 heartbeat IPC: 2.909 cumulative IPC: 2.087 (Simulation time: 05 hr 08 min 39 sec)
Heartbeat CPU 0 instructions: 630000002 cycles: 289907329 heartbeat IPC: 2.33 cumulative IPC: 2.091 (Simulation time: 05 hr 13 min 13 sec)
Heartbeat CPU 0 instructions: 640000001 cycles: 293806201 heartbeat IPC: 2.565 cumulative IPC: 2.098 (Simulation time: 05 hr 17 min 52 sec)
Heartbeat CPU 0 instructions: 650000000 cycles: 297563213 heartbeat IPC: 2.662 cumulative IPC: 2.105 (Simulation time: 05 hr 22 min 10 sec)
Simulation finished CPU 0 instructions: 600000001 cycles: 285026116 cumulative IPC: 2.105 (Simulation time: 05 hr 22 min 10 sec)
Simulation complete CPU 0 instructions: 600000001 cycles: 285026116 cumulative IPC: 2.105 (Simulation time: 05 hr 22 min 10 sec)

ChampSim completed all CPUs

=== Simulation ===
CPU 0 runs traces/400.perlbench-41B.champsimtrace.xz
Region of Interest Statistics

CPU 0 cumulative IPC: 2.105 instructions: 600000001 cycles: 285026116
CPU 0 Branch Prediction Accuracy: 96.56% MPKI: 7.112 Average ROB Occupancy at Mispredict: 47
Branch type MPKI
BRANCH_DIRECT_JUMP: 0.0123
BRANCH_INDIRECT: 0.323
BRANCH_CONDITIONAL: 6.56
BRANCH_DIRECT_CALL: 0.0043
BRANCH_INDIRECT_CALL: 0.2
BRANCH_RETURN: 0.00828

LLC TOTAL        ACCESS:     721509 HIT:     323892 MISS:     397617
LLC LOAD         ACCESS:     308500 HIT:     149191 MISS:     159309
LLC RFO          ACCESS:      25153 HIT:       9503 MISS:      15650
LLC PREFETCH     ACCESS:     308500 HIT:     136237 MISS:     172263
LLC WRITE        ACCESS:      63756 HIT:      27175 MISS:      36581
LLC TRANSLATION  ACCESS:      15600 HIT:       1786 MISS:      13814
LLC PREFETCH REQUESTED:     308500 ISSUED:     308500 USEFUL:      56885 USELESS:      78228
LLC AVERAGE MISS LATENCY: 550 cycles
cpu0_DTLB TOTAL        ACCESS:  141886183 HIT:  141200865 MISS:     685318
cpu0_DTLB LOAD         ACCESS:  141886183 HIT:  141200865 MISS:     685318
cpu0_DTLB RFO          ACCESS:          0 HIT:          0 MISS:          0
cpu0_DTLB PREFETCH     ACCESS:          0 HIT:          0 MISS:          0
cpu0_DTLB WRITE        ACCESS:          0 HIT:          0 MISS:          0
cpu0_DTLB TRANSLATION  ACCESS:          0 HIT:          0 MISS:          0
cpu0_DTLB PREFETCH REQUESTED:          0 ISSUED:          0 USEFUL:          0 USELESS:          0
cpu0_DTLB AVERAGE MISS LATENCY: 18.85 cycles
cpu0_ITLB TOTAL        ACCESS:    4856398 HIT:    4803099 MISS:      53299
cpu0_ITLB LOAD         ACCESS:    4856398 HIT:    4803099 MISS:      53299
cpu0_ITLB RFO          ACCESS:          0 HIT:          0 MISS:          0
cpu0_ITLB PREFETCH     ACCESS:          0 HIT:          0 MISS:          0
cpu0_ITLB WRITE        ACCESS:          0 HIT:          0 MISS:          0
cpu0_ITLB TRANSLATION  ACCESS:          0 HIT:          0 MISS:          0
cpu0_ITLB PREFETCH REQUESTED:          0 ISSUED:          0 USEFUL:          0 USELESS:          0
cpu0_ITLB AVERAGE MISS LATENCY: 8.192 cycles
cpu0_L1D TOTAL        ACCESS:  188573784 HIT:  187244345 MISS:    1329439
cpu0_L1D LOAD         ACCESS:  105206663 HIT:  104179323 MISS:    1027340
cpu0_L1D RFO          ACCESS:          0 HIT:          0 MISS:          0
cpu0_L1D PREFETCH     ACCESS:          0 HIT:          0 MISS:          0
cpu0_L1D WRITE        ACCESS:   83342656 HIT:   83063417 MISS:     279239
cpu0_L1D TRANSLATION  ACCESS:      24465 HIT:       1605 MISS:      22860
cpu0_L1D PREFETCH REQUESTED:          0 ISSUED:          0 USEFUL:          0 USELESS:          0
cpu0_L1D AVERAGE MISS LATENCY: 96.44 cycles
cpu0_L1I TOTAL        ACCESS:    5594228 HIT:    4850418 MISS:     743810
cpu0_L1I LOAD         ACCESS:    5594228 HIT:    4850418 MISS:     743810
cpu0_L1I RFO          ACCESS:          0 HIT:          0 MISS:          0
cpu0_L1I PREFETCH     ACCESS:          0 HIT:          0 MISS:          0
cpu0_L1I WRITE        ACCESS:          0 HIT:          0 MISS:          0
cpu0_L1I TRANSLATION  ACCESS:          0 HIT:          0 MISS:          0
cpu0_L1I PREFETCH REQUESTED:          0 ISSUED:          0 USEFUL:          0 USELESS:          0
cpu0_L1I AVERAGE MISS LATENCY: 12.11 cycles
cpu0_L2C TOTAL        ACCESS:    1380858 HIT:    1030727 MISS:     350131
cpu0_L2C LOAD         ACCESS:    1124797 HIT:     816297 MISS:     308500
cpu0_L2C RFO          ACCESS:      63763 HIT:      38610 MISS:      25153
cpu0_L2C PREFETCH     ACCESS:          0 HIT:          0 MISS:          0
cpu0_L2C WRITE        ACCESS:     169510 HIT:     168632 MISS:        878
cpu0_L2C TRANSLATION  ACCESS:      22788 HIT:       7188 MISS:      15600
cpu0_L2C PREFETCH REQUESTED:          0 ISSUED:          0 USEFUL:          0 USELESS:          0
cpu0_L2C AVERAGE MISS LATENCY: 370.2 cycles
cpu0_STLB TOTAL        ACCESS:     507213 HIT:     484419 MISS:      22794
cpu0_STLB LOAD         ACCESS:     507213 HIT:     484419 MISS:      22794
cpu0_STLB RFO          ACCESS:          0 HIT:          0 MISS:          0
cpu0_STLB PREFETCH     ACCESS:          0 HIT:          0 MISS:          0
cpu0_STLB WRITE        ACCESS:          0 HIT:          0 MISS:          0
cpu0_STLB TRANSLATION  ACCESS:          0 HIT:          0 MISS:          0
cpu0_STLB PREFETCH REQUESTED:          0 ISSUED:          0 USEFUL:          0 USELESS:          0
cpu0_STLB AVERAGE MISS LATENCY: 453.1 cycles

DRAM Statistics

Channel 0 RQ ROW_BUFFER_HIT:      48108
  ROW_BUFFER_MISS:     262654
 AVG DBUS CONGESTED CYCLE: 3.879
WQ ROW_BUFFER_HIT: Channel 0 
  ROW_BUFFER_MISS:       5855
  FULL:      32327
