WARNING: physical memory size is smaller than virtual memory size.

*** ChampSim Multicore Out-of-Order Simulator ***
Warmup Instructions: 50000000
Simulation Instructions: 600000000
Number of CPUs: 1
Page size: 4096

Off-chip DRAM Size: 4 GiB Channels: 1 Width: 64-bit Data Race: 3200 MT/s
Heartbeat CPU 0 instructions: 10000001 cycles: 2500319 heartbeat IPC: 3.999 cumulative IPC: 3.999 (Simulation time: 00 hr 03 min 08 sec)
Heartbeat CPU 0 instructions: 20000002 cycles: 5037098 heartbeat IPC: 3.942 cumulative IPC: 3.971 (Simulation time: 00 hr 06 min 49 sec)
Heartbeat CPU 0 instructions: 30000002 cycles: 7537098 heartbeat IPC: 4 cumulative IPC: 3.98 (Simulation time: 00 hr 10 min 25 sec)
Heartbeat CPU 0 instructions: 40000002 cycles: 10037098 heartbeat IPC: 4 cumulative IPC: 3.985 (Simulation time: 00 hr 13 min 50 sec)
Heartbeat CPU 0 instructions: 50000002 cycles: 12537098 heartbeat IPC: 4 cumulative IPC: 3.988 (Simulation time: 00 hr 17 min 17 sec)
Warmup finished CPU 0 instructions: 50000002 cycles: 12537099 cumulative IPC: 3.988 (Simulation time: 00 hr 17 min 17 sec)
Warmup complete CPU 0 instructions: 50000002 cycles: 12537099 cumulative IPC: 3.988 (Simulation time: 00 hr 17 min 17 sec)
Heartbeat CPU 0 instructions: 60000000 cycles: 17153431 heartbeat IPC: 2.166 cumulative IPC: 2.166 (Simulation time: 00 hr 22 min 21 sec)
Heartbeat CPU 0 instructions: 70000004 cycles: 21431436 heartbeat IPC: 2.338 cumulative IPC: 2.249 (Simulation time: 00 hr 27 min 15 sec)
Heartbeat CPU 0 instructions: 80000001 cycles: 26024583 heartbeat IPC: 2.177 cumulative IPC: 2.224 (Simulation time: 00 hr 32 min 17 sec)
Heartbeat CPU 0 instructions: 90000001 cycles: 30143498 heartbeat IPC: 2.428 cumulative IPC: 2.272 (Simulation time: 00 hr 37 min 04 sec)
Heartbeat CPU 0 instructions: 100000000 cycles: 34193885 heartbeat IPC: 2.469 cumulative IPC: 2.309 (Simulation time: 00 hr 41 min 52 sec)
Heartbeat CPU 0 instructions: 110000000 cycles: 38425412 heartbeat IPC: 2.363 cumulative IPC: 2.318 (Simulation time: 00 hr 46 min 38 sec)
Heartbeat CPU 0 instructions: 120000001 cycles: 42439167 heartbeat IPC: 2.491 cumulative IPC: 2.341 (Simulation time: 00 hr 51 min 21 sec)
Heartbeat CPU 0 instructions: 130000001 cycles: 46172911 heartbeat IPC: 2.678 cumulative IPC: 2.378 (Simulation time: 00 hr 55 min 56 sec)
Heartbeat CPU 0 instructions: 140000001 cycles: 50342458 heartbeat IPC: 2.398 cumulative IPC: 2.381 (Simulation time: 01 hr 00 min 44 sec)
Heartbeat CPU 0 instructions: 150000001 cycles: 54541619 heartbeat IPC: 2.381 cumulative IPC: 2.381 (Simulation time: 01 hr 05 min 30 sec)
Heartbeat CPU 0 instructions: 160000004 cycles: 58965748 heartbeat IPC: 2.26 cumulative IPC: 2.369 (Simulation time: 01 hr 10 min 26 sec)
Heartbeat CPU 0 instructions: 170000000 cycles: 67741879 heartbeat IPC: 1.139 cumulative IPC: 2.174 (Simulation time: 01 hr 18 min 16 sec)
Heartbeat CPU 0 instructions: 180000004 cycles: 77560280 heartbeat IPC: 1.018 cumulative IPC: 1.999 (Simulation time: 01 hr 26 min 51 sec)
Heartbeat CPU 0 instructions: 190000001 cycles: 88243140 heartbeat IPC: 0.9361 cumulative IPC: 1.849 (Simulation time: 01 hr 35 min 56 sec)
Heartbeat CPU 0 instructions: 200000004 cycles: 92029015 heartbeat IPC: 2.641 cumulative IPC: 1.887 (Simulation time: 01 hr 40 min 33 sec)
Heartbeat CPU 0 instructions: 210000001 cycles: 95946863 heartbeat IPC: 2.552 cumulative IPC: 1.918 (Simulation time: 01 hr 45 min 19 sec)
Heartbeat CPU 0 instructions: 220000000 cycles: 99901659 heartbeat IPC: 2.529 cumulative IPC: 1.946 (Simulation time: 01 hr 50 min 00 sec)
Heartbeat CPU 0 instructions: 230000002 cycles: 104579037 heartbeat IPC: 2.138 cumulative IPC: 1.956 (Simulation time: 01 hr 55 min 05 sec)
Heartbeat CPU 0 instructions: 240000000 cycles: 108781040 heartbeat IPC: 2.38 cumulative IPC: 1.974 (Simulation time: 01 hr 59 min 57 sec)
Heartbeat CPU 0 instructions: 250000000 cycles: 113101468 heartbeat IPC: 2.315 cumulative IPC: 1.989 (Simulation time: 02 hr 04 min 52 sec)
Heartbeat CPU 0 instructions: 260000000 cycles: 117270541 heartbeat IPC: 2.399 cumulative IPC: 2.005 (Simulation time: 02 hr 09 min 44 sec)
Heartbeat CPU 0 instructions: 270000002 cycles: 121119760 heartbeat IPC: 2.598 cumulative IPC: 2.026 (Simulation time: 02 hr 14 min 20 sec)
Heartbeat CPU 0 instructions: 280000002 cycles: 125282869 heartbeat IPC: 2.402 cumulative IPC: 2.04 (Simulation time: 02 hr 19 min 10 sec)
Heartbeat CPU 0 instructions: 290000001 cycles: 129185842 heartbeat IPC: 2.562 cumulative IPC: 2.057 (Simulation time: 02 hr 23 min 50 sec)
Heartbeat CPU 0 instructions: 300000003 cycles: 133015651 heartbeat IPC: 2.611 cumulative IPC: 2.075 (Simulation time: 02 hr 28 min 33 sec)
Heartbeat CPU 0 instructions: 310000001 cycles: 137159548 heartbeat IPC: 2.413 cumulative IPC: 2.086 (Simulation time: 02 hr 33 min 21 sec)
Heartbeat CPU 0 instructions: 320000003 cycles: 141248010 heartbeat IPC: 2.446 cumulative IPC: 2.098 (Simulation time: 02 hr 38 min 19 sec)
Heartbeat CPU 0 instructions: 330000003 cycles: 145664621 heartbeat IPC: 2.264 cumulative IPC: 2.103 (Simulation time: 02 hr 43 min 16 sec)
Heartbeat CPU 0 instructions: 340000000 cycles: 154647012 heartbeat IPC: 1.113 cumulative IPC: 2.041 (Simulation time: 02 hr 51 min 15 sec)
Heartbeat CPU 0 instructions: 350000000 cycles: 165096276 heartbeat IPC: 0.957 cumulative IPC: 1.966 (Simulation time: 03 hr 00 min 16 sec)
Heartbeat CPU 0 instructions: 360000004 cycles: 175776299 heartbeat IPC: 0.9363 cumulative IPC: 1.899 (Simulation time: 03 hr 09 min 27 sec)
Heartbeat CPU 0 instructions: 370000000 cycles: 179209938 heartbeat IPC: 2.912 cumulative IPC: 1.92 (Simulation time: 03 hr 13 min 56 sec)
Heartbeat CPU 0 instructions: 380000001 cycles: 182629563 heartbeat IPC: 2.924 cumulative IPC: 1.94 (Simulation time: 03 hr 18 min 23 sec)
Heartbeat CPU 0 instructions: 390000004 cycles: 186372522 heartbeat IPC: 2.672 cumulative IPC: 1.956 (Simulation time: 03 hr 23 min 02 sec)
Heartbeat CPU 0 instructions: 400000004 cycles: 190179719 heartbeat IPC: 2.627 cumulative IPC: 1.97 (Simulation time: 03 hr 27 min 40 sec)
Heartbeat CPU 0 instructions: 410000001 cycles: 193836958 heartbeat IPC: 2.734 cumulative IPC: 1.986 (Simulation time: 03 hr 32 min 14 sec)
Heartbeat CPU 0 instructions: 420000003 cycles: 197936721 heartbeat IPC: 2.439 cumulative IPC: 1.996 (Simulation time: 03 hr 37 min 03 sec)
Heartbeat CPU 0 instructions: 430000001 cycles: 201609460 heartbeat IPC: 2.723 cumulative IPC: 2.01 (Simulation time: 03 hr 41 min 42 sec)
Heartbeat CPU 0 instructions: 440000004 cycles: 205696314 heartbeat IPC: 2.447 cumulative IPC: 2.019 (Simulation time: 03 hr 46 min 31 sec)
Heartbeat CPU 0 instructions: 450000002 cycles: 209423499 heartbeat IPC: 2.683 cumulative IPC: 2.032 (Simulation time: 03 hr 51 min 08 sec)
Heartbeat CPU 0 instructions: 460000000 cycles: 213083517 heartbeat IPC: 2.732 cumulative IPC: 2.044 (Simulation time: 03 hr 55 min 43 sec)
Heartbeat CPU 0 instructions: 470000000 cycles: 216545247 heartbeat IPC: 2.889 cumulative IPC: 2.059 (Simulation time: 04 hr 00 min 10 sec)
Heartbeat CPU 0 instructions: 480000003 cycles: 220393093 heartbeat IPC: 2.599 cumulative IPC: 2.069 (Simulation time: 04 hr 04 min 45 sec)
Heartbeat CPU 0 instructions: 490000000 cycles: 224020731 heartbeat IPC: 2.757 cumulative IPC: 2.081 (Simulation time: 04 hr 09 min 17 sec)
Heartbeat CPU 0 instructions: 500000000 cycles: 227718956 heartbeat IPC: 2.704 cumulative IPC: 2.091 (Simulation time: 04 hr 13 min 51 sec)
Heartbeat CPU 0 instructions: 510000003 cycles: 231427025 heartbeat IPC: 2.697 cumulative IPC: 2.102 (Simulation time: 04 hr 18 min 28 sec)
Heartbeat CPU 0 instructions: 520000001 cycles: 234827241 heartbeat IPC: 2.941 cumulative IPC: 2.114 (Simulation time: 04 hr 22 min 57 sec)
Heartbeat CPU 0 instructions: 530000002 cycles: 238519973 heartbeat IPC: 2.708 cumulative IPC: 2.124 (Simulation time: 04 hr 27 min 29 sec)
Heartbeat CPU 0 instructions: 540000000 cycles: 242051459 heartbeat IPC: 2.832 cumulative IPC: 2.135 (Simulation time: 04 hr 32 min 01 sec)
Heartbeat CPU 0 instructions: 550000001 cycles: 245748921 heartbeat IPC: 2.705 cumulative IPC: 2.144 (Simulation time: 04 hr 36 min 37 sec)
Heartbeat CPU 0 instructions: 560000000 cycles: 249773110 heartbeat IPC: 2.485 cumulative IPC: 2.15 (Simulation time: 04 hr 41 min 22 sec)
Heartbeat CPU 0 instructions: 570000004 cycles: 256069675 heartbeat IPC: 1.588 cumulative IPC: 2.135 (Simulation time: 04 hr 47 min 37 sec)
Heartbeat CPU 0 instructions: 580000003 cycles: 265644245 heartbeat IPC: 1.044 cumulative IPC: 2.094 (Simulation time: 04 hr 56 min 06 sec)
Heartbeat CPU 0 instructions: 590000002 cycles: 279505637 heartbeat IPC: 0.7214 cumulative IPC: 2.023 (Simulation time: 05 hr 07 min 21 sec)
Heartbeat CPU 0 instructions: 600000000 cycles: 283304217 heartbeat IPC: 2.633 cumulative IPC: 2.031 (Simulation time: 05 hr 11 min 58 sec)
Heartbeat CPU 0 instructions: 610000000 cycles: 287153685 heartbeat IPC: 2.598 cumulative IPC: 2.039 (Simulation time: 05 hr 16 min 35 sec)
Heartbeat CPU 0 instructions: 620000001 cycles: 290589303 heartbeat IPC: 2.911 cumulative IPC: 2.05 (Simulation time: 05 hr 21 min 04 sec)
Heartbeat CPU 0 instructions: 630000002 cycles: 294864465 heartbeat IPC: 2.339 cumulative IPC: 2.054 (Simulation time: 05 hr 25 min 56 sec)
Heartbeat CPU 0 instructions: 640000001 cycles: 298760582 heartbeat IPC: 2.567 cumulative IPC: 2.061 (Simulation time: 05 hr 30 min 32 sec)
Heartbeat CPU 0 instructions: 650000000 cycles: 302513177 heartbeat IPC: 2.665 cumulative IPC: 2.069 (Simulation time: 05 hr 35 min 27 sec)
Simulation finished CPU 0 instructions: 600000001 cycles: 289976080 cumulative IPC: 2.069 (Simulation time: 05 hr 35 min 27 sec)
Simulation complete CPU 0 instructions: 600000001 cycles: 289976080 cumulative IPC: 2.069 (Simulation time: 05 hr 35 min 27 sec)

ChampSim completed all CPUs

=== Simulation ===
CPU 0 runs traces/400.perlbench-41B.champsimtrace.xz
Region of Interest Statistics

CPU 0 cumulative IPC: 2.069 instructions: 600000001 cycles: 289976080
CPU 0 Branch Prediction Accuracy: 96.56% MPKI: 7.112 Average ROB Occupancy at Mispredict: 47.18
Branch type MPKI
BRANCH_DIRECT_JUMP: 0.0123
BRANCH_INDIRECT: 0.323
BRANCH_CONDITIONAL: 6.56
BRANCH_DIRECT_CALL: 0.0043
BRANCH_INDIRECT_CALL: 0.2
BRANCH_RETURN: 0.00828

LLC TOTAL        ACCESS:     721487 HIT:     303130 MISS:     418357
LLC LOAD         ACCESS:     308424 HIT:     138829 MISS:     169595
LLC RFO          ACCESS:      25218 HIT:       6882 MISS:      18336
LLC PREFETCH     ACCESS:     308424 HIT:     127863 MISS:     180561
LLC WRITE        ACCESS:      63805 HIT:      27592 MISS:      36213
LLC TRANSLATION  ACCESS:      15616 HIT:       1964 MISS:      13652
LLC PREFETCH REQUESTED:     308424 ISSUED:     308424 USEFUL:      59024 USELESS:      83189
LLC AVERAGE MISS LATENCY: 553.4 cycles
cpu0_DTLB TOTAL        ACCESS:  141876961 HIT:  141191554 MISS:     685407
cpu0_DTLB LOAD         ACCESS:  141876961 HIT:  141191554 MISS:     685407
cpu0_DTLB RFO          ACCESS:          0 HIT:          0 MISS:          0
cpu0_DTLB PREFETCH     ACCESS:          0 HIT:          0 MISS:          0
cpu0_DTLB WRITE        ACCESS:          0 HIT:          0 MISS:          0
cpu0_DTLB TRANSLATION  ACCESS:          0 HIT:          0 MISS:          0
cpu0_DTLB PREFETCH REQUESTED:          0 ISSUED:          0 USEFUL:          0 USELESS:          0
cpu0_DTLB AVERAGE MISS LATENCY: 19.37 cycles
cpu0_ITLB TOTAL        ACCESS:    4857042 HIT:    4803743 MISS:      53299
cpu0_ITLB LOAD         ACCESS:    4857042 HIT:    4803743 MISS:      53299
cpu0_ITLB RFO          ACCESS:          0 HIT:          0 MISS:          0
cpu0_ITLB PREFETCH     ACCESS:          0 HIT:          0 MISS:          0
cpu0_ITLB WRITE        ACCESS:          0 HIT:          0 MISS:          0
cpu0_ITLB TRANSLATION  ACCESS:          0 HIT:          0 MISS:          0
cpu0_ITLB PREFETCH REQUESTED:          0 ISSUED:          0 USEFUL:          0 USELESS:          0
cpu0_ITLB AVERAGE MISS LATENCY: 8.578 cycles
cpu0_L1D TOTAL        ACCESS:  188560856 HIT:  187223601 MISS:    1337255
cpu0_L1D LOAD         ACCESS:  105193759 HIT:  104166695 MISS:    1027064
cpu0_L1D RFO          ACCESS:          0 HIT:          0 MISS:          0
cpu0_L1D PREFETCH     ACCESS:          0 HIT:          0 MISS:          0
cpu0_L1D WRITE        ACCESS:   83342629 HIT:   83055302 MISS:     287327
cpu0_L1D TRANSLATION  ACCESS:      24468 HIT:       1604 MISS:      22864
cpu0_L1D PREFETCH REQUESTED:          0 ISSUED:          0 USEFUL:          0 USELESS:          0
cpu0_L1D AVERAGE MISS LATENCY: 101.5 cycles
cpu0_L1I TOTAL        ACCESS:    5594693 HIT:    4850909 MISS:     743784
cpu0_L1I LOAD         ACCESS:    5594693 HIT:    4850909 MISS:     743784
cpu0_L1I RFO          ACCESS:          0 HIT:          0 MISS:          0
cpu0_L1I PREFETCH     ACCESS:          0 HIT:          0 MISS:          0
cpu0_L1I WRITE        ACCESS:          0 HIT:          0 MISS:          0
cpu0_L1I TRANSLATION  ACCESS:          0 HIT:          0 MISS:          0
cpu0_L1I PREFETCH REQUESTED:          0 ISSUED:          0 USEFUL:          0 USELESS:          0
cpu0_L1I AVERAGE MISS LATENCY: 13.71 cycles
cpu0_L2C TOTAL        ACCESS:    1380866 HIT:    1030713 MISS:     350153
cpu0_L2C LOAD         ACCESS:    1124788 HIT:     816364 MISS:     308424
cpu0_L2C RFO          ACCESS:      63798 HIT:      38580 MISS:      25218
cpu0_L2C PREFETCH     ACCESS:          0 HIT:          0 MISS:          0
cpu0_L2C WRITE        ACCESS:     169488 HIT:     168593 MISS:        895
cpu0_L2C TRANSLATION  ACCESS:      22792 HIT:       7176 MISS:      15616
cpu0_L2C PREFETCH REQUESTED:          0 ISSUED:          0 USEFUL:          0 USELESS:          0
cpu0_L2C AVERAGE MISS LATENCY: 395.8 cycles
cpu0_STLB TOTAL        ACCESS:     507222 HIT:     484428 MISS:      22794
cpu0_STLB LOAD         ACCESS:     507222 HIT:     484428 MISS:      22794
cpu0_STLB RFO          ACCESS:          0 HIT:          0 MISS:          0
cpu0_STLB PREFETCH     ACCESS:          0 HIT:          0 MISS:          0
cpu0_STLB WRITE        ACCESS:          0 HIT:          0 MISS:          0
cpu0_STLB TRANSLATION  ACCESS:          0 HIT:          0 MISS:          0
cpu0_STLB PREFETCH REQUESTED:          0 ISSUED:          0 USEFUL:          0 USELESS:          0
cpu0_STLB AVERAGE MISS LATENCY: 470 cycles

DRAM Statistics

Channel 0 RQ ROW_BUFFER_HIT:      49422
  ROW_BUFFER_MISS:     280492
 AVG DBUS CONGESTED CYCLE: 3.889
WQ ROW_BUFFER_HIT: Channel 0 
  ROW_BUFFER_MISS:       6287
  FULL:      41351
