WARNING: physical memory size is smaller than virtual memory size.

*** ChampSim Multicore Out-of-Order Simulator ***
Warmup Instructions: 50000000
Simulation Instructions: 600000000
Number of CPUs: 1
Page size: 4096

Off-chip DRAM Size: 4 GiB Channels: 1 Width: 64-bit Data Race: 3200 MT/s
Heartbeat CPU 0 instructions: 10000001 cycles: 2500318 heartbeat IPC: 3.999 cumulative IPC: 3.999 (Simulation time: 00 hr 03 min 53 sec)
Heartbeat CPU 0 instructions: 20000002 cycles: 5037092 heartbeat IPC: 3.942 cumulative IPC: 3.971 (Simulation time: 00 hr 07 min 39 sec)
Heartbeat CPU 0 instructions: 30000002 cycles: 7537092 heartbeat IPC: 4 cumulative IPC: 3.98 (Simulation time: 00 hr 11 min 04 sec)
Heartbeat CPU 0 instructions: 40000002 cycles: 10037092 heartbeat IPC: 4 cumulative IPC: 3.985 (Simulation time: 00 hr 14 min 35 sec)
Heartbeat CPU 0 instructions: 50000002 cycles: 12537092 heartbeat IPC: 4 cumulative IPC: 3.988 (Simulation time: 00 hr 18 min 02 sec)
Warmup finished CPU 0 instructions: 50000002 cycles: 12537093 cumulative IPC: 3.988 (Simulation time: 00 hr 18 min 02 sec)
Warmup complete CPU 0 instructions: 50000002 cycles: 12537093 cumulative IPC: 3.988 (Simulation time: 00 hr 18 min 02 sec)
Heartbeat CPU 0 instructions: 60000000 cycles: 17152219 heartbeat IPC: 2.167 cumulative IPC: 2.167 (Simulation time: 00 hr 23 min 04 sec)
Heartbeat CPU 0 instructions: 70000004 cycles: 21422775 heartbeat IPC: 2.342 cumulative IPC: 2.251 (Simulation time: 00 hr 28 min 02 sec)
Heartbeat CPU 0 instructions: 80000001 cycles: 26012715 heartbeat IPC: 2.179 cumulative IPC: 2.226 (Simulation time: 00 hr 33 min 09 sec)
Heartbeat CPU 0 instructions: 90000001 cycles: 30138257 heartbeat IPC: 2.424 cumulative IPC: 2.273 (Simulation time: 00 hr 38 min 02 sec)
Heartbeat CPU 0 instructions: 100000000 cycles: 34189272 heartbeat IPC: 2.469 cumulative IPC: 2.309 (Simulation time: 00 hr 42 min 51 sec)
Heartbeat CPU 0 instructions: 110000000 cycles: 38430190 heartbeat IPC: 2.358 cumulative IPC: 2.317 (Simulation time: 00 hr 47 min 41 sec)
Heartbeat CPU 0 instructions: 120000001 cycles: 42439503 heartbeat IPC: 2.494 cumulative IPC: 2.341 (Simulation time: 00 hr 52 min 28 sec)
Heartbeat CPU 0 instructions: 130000001 cycles: 46174014 heartbeat IPC: 2.678 cumulative IPC: 2.378 (Simulation time: 00 hr 57 min 08 sec)
Heartbeat CPU 0 instructions: 140000001 cycles: 50329490 heartbeat IPC: 2.406 cumulative IPC: 2.381 (Simulation time: 01 hr 01 min 57 sec)
Heartbeat CPU 0 instructions: 150000001 cycles: 54523819 heartbeat IPC: 2.384 cumulative IPC: 2.382 (Simulation time: 01 hr 06 min 55 sec)
Heartbeat CPU 0 instructions: 160000004 cycles: 58942568 heartbeat IPC: 2.263 cumulative IPC: 2.37 (Simulation time: 01 hr 11 min 50 sec)
Heartbeat CPU 0 instructions: 170000004 cycles: 68672344 heartbeat IPC: 1.028 cumulative IPC: 2.138 (Simulation time: 01 hr 20 min 21 sec)
Heartbeat CPU 0 instructions: 180000004 cycles: 79348482 heartbeat IPC: 0.9367 cumulative IPC: 1.946 (Simulation time: 01 hr 29 min 34 sec)
Heartbeat CPU 0 instructions: 190000001 cycles: 89411099 heartbeat IPC: 0.9938 cumulative IPC: 1.821 (Simulation time: 01 hr 38 min 30 sec)
Heartbeat CPU 0 instructions: 200000004 cycles: 93190375 heartbeat IPC: 2.646 cumulative IPC: 1.86 (Simulation time: 01 hr 43 min 12 sec)
Heartbeat CPU 0 instructions: 210000001 cycles: 97107738 heartbeat IPC: 2.553 cumulative IPC: 1.892 (Simulation time: 01 hr 48 min 00 sec)
Heartbeat CPU 0 instructions: 220000000 cycles: 101068883 heartbeat IPC: 2.525 cumulative IPC: 1.92 (Simulation time: 01 hr 52 min 45 sec)
Heartbeat CPU 0 instructions: 230000002 cycles: 105742383 heartbeat IPC: 2.14 cumulative IPC: 1.931 (Simulation time: 01 hr 57 min 53 sec)
Heartbeat CPU 0 instructions: 240000000 cycles: 109936117 heartbeat IPC: 2.385 cumulative IPC: 1.951 (Simulation time: 02 hr 02 min 48 sec)
Heartbeat CPU 0 instructions: 250000000 cycles: 114251048 heartbeat IPC: 2.318 cumulative IPC: 1.966 (Simulation time: 02 hr 07 min 45 sec)
Heartbeat CPU 0 instructions: 260000000 cycles: 118436100 heartbeat IPC: 2.389 cumulative IPC: 1.983 (Simulation time: 02 hr 12 min 39 sec)
Heartbeat CPU 0 instructions: 270000002 cycles: 122287938 heartbeat IPC: 2.596 cumulative IPC: 2.005 (Simulation time: 02 hr 17 min 21 sec)
Heartbeat CPU 0 instructions: 280000002 cycles: 126461119 heartbeat IPC: 2.396 cumulative IPC: 2.019 (Simulation time: 02 hr 22 min 11 sec)
Heartbeat CPU 0 instructions: 290000001 cycles: 130358025 heartbeat IPC: 2.566 cumulative IPC: 2.037 (Simulation time: 02 hr 26 min 56 sec)
Heartbeat CPU 0 instructions: 300000003 cycles: 134193353 heartbeat IPC: 2.607 cumulative IPC: 2.055 (Simulation time: 02 hr 31 min 46 sec)
Heartbeat CPU 0 instructions: 310000001 cycles: 138319502 heartbeat IPC: 2.424 cumulative IPC: 2.067 (Simulation time: 02 hr 36 min 36 sec)
Heartbeat CPU 0 instructions: 320000003 cycles: 142401122 heartbeat IPC: 2.45 cumulative IPC: 2.079 (Simulation time: 02 hr 41 min 24 sec)
Heartbeat CPU 0 instructions: 330000003 cycles: 146815595 heartbeat IPC: 2.265 cumulative IPC: 2.085 (Simulation time: 02 hr 46 min 24 sec)
Heartbeat CPU 0 instructions: 340000000 cycles: 156664371 heartbeat IPC: 1.015 cumulative IPC: 2.012 (Simulation time: 02 hr 55 min 06 sec)
Heartbeat CPU 0 instructions: 350000000 cycles: 167687088 heartbeat IPC: 0.9072 cumulative IPC: 1.934 (Simulation time: 03 hr 04 min 35 sec)
Heartbeat CPU 0 instructions: 360000004 cycles: 177683984 heartbeat IPC: 1 cumulative IPC: 1.877 (Simulation time: 03 hr 13 min 22 sec)
Heartbeat CPU 0 instructions: 370000000 cycles: 181127961 heartbeat IPC: 2.904 cumulative IPC: 1.898 (Simulation time: 03 hr 17 min 49 sec)
Heartbeat CPU 0 instructions: 380000001 cycles: 184545553 heartbeat IPC: 2.926 cumulative IPC: 1.919 (Simulation time: 03 hr 22 min 22 sec)
Heartbeat CPU 0 instructions: 390000004 cycles: 188289970 heartbeat IPC: 2.671 cumulative IPC: 1.935 (Simulation time: 03 hr 27 min 01 sec)
Heartbeat CPU 0 instructions: 400000004 cycles: 192101352 heartbeat IPC: 2.624 cumulative IPC: 1.949 (Simulation time: 03 hr 31 min 40 sec)
Heartbeat CPU 0 instructions: 410000001 cycles: 195756719 heartbeat IPC: 2.736 cumulative IPC: 1.965 (Simulation time: 03 hr 36 min 10 sec)
Heartbeat CPU 0 instructions: 420000003 cycles: 199810438 heartbeat IPC: 2.467 cumulative IPC: 1.976 (Simulation time: 03 hr 40 min 57 sec)
Heartbeat CPU 0 instructions: 430000001 cycles: 203468932 heartbeat IPC: 2.733 cumulative IPC: 1.99 (Simulation time: 03 hr 45 min 35 sec)
Heartbeat CPU 0 instructions: 440000004 cycles: 207553574 heartbeat IPC: 2.448 cumulative IPC: 2 (Simulation time: 03 hr 50 min 27 sec)
Heartbeat CPU 0 instructions: 450000002 cycles: 211286964 heartbeat IPC: 2.679 cumulative IPC: 2.013 (Simulation time: 03 hr 55 min 05 sec)
Heartbeat CPU 0 instructions: 460000000 cycles: 214955856 heartbeat IPC: 2.726 cumulative IPC: 2.026 (Simulation time: 03 hr 59 min 39 sec)
Heartbeat CPU 0 instructions: 470000000 cycles: 218419887 heartbeat IPC: 2.887 cumulative IPC: 2.04 (Simulation time: 04 hr 04 min 07 sec)
Heartbeat CPU 0 instructions: 480000003 cycles: 222241574 heartbeat IPC: 2.617 cumulative IPC: 2.051 (Simulation time: 04 hr 08 min 46 sec)
Heartbeat CPU 0 instructions: 490000000 cycles: 225876361 heartbeat IPC: 2.751 cumulative IPC: 2.062 (Simulation time: 04 hr 13 min 18 sec)
Heartbeat CPU 0 instructions: 500000000 cycles: 229570908 heartbeat IPC: 2.707 cumulative IPC: 2.073 (Simulation time: 04 hr 17 min 56 sec)
Heartbeat CPU 0 instructions: 510000003 cycles: 233213294 heartbeat IPC: 2.745 cumulative IPC: 2.085 (Simulation time: 04 hr 22 min 31 sec)
Heartbeat CPU 0 instructions: 520000001 cycles: 236628062 heartbeat IPC: 2.928 cumulative IPC: 2.097 (Simulation time: 04 hr 27 min 03 sec)
Heartbeat CPU 0 instructions: 530000002 cycles: 240297397 heartbeat IPC: 2.725 cumulative IPC: 2.107 (Simulation time: 04 hr 31 min 38 sec)
Heartbeat CPU 0 instructions: 540000000 cycles: 243829304 heartbeat IPC: 2.831 cumulative IPC: 2.119 (Simulation time: 04 hr 36 min 08 sec)
Heartbeat CPU 0 instructions: 550000001 cycles: 247527591 heartbeat IPC: 2.704 cumulative IPC: 2.128 (Simulation time: 04 hr 40 min 47 sec)
Heartbeat CPU 0 instructions: 560000000 cycles: 251498668 heartbeat IPC: 2.518 cumulative IPC: 2.134 (Simulation time: 04 hr 45 min 43 sec)
Heartbeat CPU 0 instructions: 570000004 cycles: 257837131 heartbeat IPC: 1.578 cumulative IPC: 2.12 (Simulation time: 04 hr 52 min 10 sec)
Heartbeat CPU 0 instructions: 580000003 cycles: 269207981 heartbeat IPC: 0.8794 cumulative IPC: 2.065 (Simulation time: 05 hr 02 min 03 sec)
Heartbeat CPU 0 instructions: 590000002 cycles: 282143216 heartbeat IPC: 0.7731 cumulative IPC: 2.003 (Simulation time: 05 hr 13 min 07 sec)
Heartbeat CPU 0 instructions: 600000000 cycles: 285892031 heartbeat IPC: 2.668 cumulative IPC: 2.012 (Simulation time: 05 hr 18 min 00 sec)
Heartbeat CPU 0 instructions: 610000000 cycles: 289752222 heartbeat IPC: 2.591 cumulative IPC: 2.02 (Simulation time: 05 hr 22 min 48 sec)
Heartbeat CPU 0 instructions: 620000001 cycles: 293186823 heartbeat IPC: 2.912 cumulative IPC: 2.031 (Simulation time: 05 hr 27 min 28 sec)
Heartbeat CPU 0 instructions: 630000002 cycles: 297464319 heartbeat IPC: 2.338 cumulative IPC: 2.036 (Simulation time: 05 hr 32 min 47 sec)
Heartbeat CPU 0 instructions: 640000001 cycles: 301361605 heartbeat IPC: 2.566 cumulative IPC: 2.043 (Simulation time: 05 hr 37 min 34 sec)
Heartbeat CPU 0 instructions: 650000000 cycles: 305116058 heartbeat IPC: 2.664 cumulative IPC: 2.051 (Simulation time: 05 hr 42 min 11 sec)
Simulation finished CPU 0 instructions: 600000001 cycles: 292578967 cumulative IPC: 2.051 (Simulation time: 05 hr 42 min 11 sec)
Simulation complete CPU 0 instructions: 600000001 cycles: 292578967 cumulative IPC: 2.051 (Simulation time: 05 hr 42 min 11 sec)

ChampSim completed all CPUs

=== Simulation ===
CPU 0 runs traces/400.perlbench-41B.champsimtrace.xz
Region of Interest Statistics

CPU 0 cumulative IPC: 2.051 instructions: 600000001 cycles: 292578967
CPU 0 Branch Prediction Accuracy: 96.56% MPKI: 7.112 Average ROB Occupancy at Mispredict: 47.26
Branch type MPKI
BRANCH_DIRECT_JUMP: 0.0123
BRANCH_INDIRECT: 0.323
BRANCH_CONDITIONAL: 6.56
BRANCH_DIRECT_CALL: 0.0043
BRANCH_INDIRECT_CALL: 0.2
BRANCH_RETURN: 0.00828

LLC TOTAL        ACCESS:     464430 HIT:     190194 MISS:     274236
LLC LOAD         ACCESS:     309769 HIT:      89026 MISS:     220743
LLC RFO          ACCESS:      25194 HIT:       9500 MISS:      15694
LLC PREFETCH     ACCESS:      49417 HIT:      22581 MISS:      26836
LLC WRITE        ACCESS:      64191 HIT:      63425 MISS:        766
LLC TRANSLATION  ACCESS:      15859 HIT:       5662 MISS:      10197
LLC PREFETCH REQUESTED:      49417 ISSUED:      49417 USEFUL:      16701 USELESS:       6805
LLC AVERAGE MISS LATENCY: 582 cycles
cpu0_DTLB TOTAL        ACCESS:  141897068 HIT:  141211512 MISS:     685556
cpu0_DTLB LOAD         ACCESS:  141897068 HIT:  141211512 MISS:     685556
cpu0_DTLB RFO          ACCESS:          0 HIT:          0 MISS:          0
cpu0_DTLB PREFETCH     ACCESS:          0 HIT:          0 MISS:          0
cpu0_DTLB WRITE        ACCESS:          0 HIT:          0 MISS:          0
cpu0_DTLB TRANSLATION  ACCESS:          0 HIT:          0 MISS:          0
cpu0_DTLB PREFETCH REQUESTED:          0 ISSUED:          0 USEFUL:          0 USELESS:          0
cpu0_DTLB AVERAGE MISS LATENCY: 15.16 cycles
cpu0_ITLB TOTAL        ACCESS:    4860837 HIT:    4807533 MISS:      53304
cpu0_ITLB LOAD         ACCESS:    4860837 HIT:    4807533 MISS:      53304
cpu0_ITLB RFO          ACCESS:          0 HIT:          0 MISS:          0
cpu0_ITLB PREFETCH     ACCESS:          0 HIT:          0 MISS:          0
cpu0_ITLB WRITE        ACCESS:          0 HIT:          0 MISS:          0
cpu0_ITLB TRANSLATION  ACCESS:          0 HIT:          0 MISS:          0
cpu0_ITLB PREFETCH REQUESTED:          0 ISSUED:          0 USEFUL:          0 USELESS:          0
cpu0_ITLB AVERAGE MISS LATENCY: 8.333 cycles
cpu0_L1D TOTAL        ACCESS:  188568770 HIT:  187228291 MISS:    1340479
cpu0_L1D LOAD         ACCESS:  105201260 HIT:  104170236 MISS:    1031024
cpu0_L1D RFO          ACCESS:          0 HIT:          0 MISS:          0
cpu0_L1D PREFETCH     ACCESS:          0 HIT:          0 MISS:          0
cpu0_L1D WRITE        ACCESS:   83343044 HIT:   83056447 MISS:     286597
cpu0_L1D TRANSLATION  ACCESS:      24466 HIT:       1608 MISS:      22858
cpu0_L1D PREFETCH REQUESTED:          0 ISSUED:          0 USEFUL:          0 USELESS:          0
cpu0_L1D AVERAGE MISS LATENCY: 109.8 cycles
cpu0_L1I TOTAL        ACCESS:    5598504 HIT:    4854395 MISS:     744109
cpu0_L1I LOAD         ACCESS:    5598504 HIT:    4854395 MISS:     744109
cpu0_L1I RFO          ACCESS:          0 HIT:          0 MISS:          0
cpu0_L1I PREFETCH     ACCESS:          0 HIT:          0 MISS:          0
cpu0_L1I WRITE        ACCESS:          0 HIT:          0 MISS:          0
cpu0_L1I TRANSLATION  ACCESS:          0 HIT:          0 MISS:          0
cpu0_L1I PREFETCH REQUESTED:          0 ISSUED:          0 USEFUL:          0 USELESS:          0
cpu0_L1I AVERAGE MISS LATENCY: 12.51 cycles
cpu0_L2C TOTAL        ACCESS:    1380796 HIT:    1029095 MISS:     351701
cpu0_L2C LOAD         ACCESS:    1124743 HIT:     814974 MISS:     309769
cpu0_L2C RFO          ACCESS:      63795 HIT:      38601 MISS:      25194
cpu0_L2C PREFETCH     ACCESS:          0 HIT:          0 MISS:          0
cpu0_L2C WRITE        ACCESS:     169468 HIT:     168589 MISS:        879
cpu0_L2C TRANSLATION  ACCESS:      22790 HIT:       6931 MISS:      15859
cpu0_L2C PREFETCH REQUESTED:          0 ISSUED:          0 USEFUL:          0 USELESS:          0
cpu0_L2C AVERAGE MISS LATENCY: 425.9 cycles
cpu0_STLB TOTAL        ACCESS:     507296 HIT:     484501 MISS:      22795
cpu0_STLB LOAD         ACCESS:     507296 HIT:     484501 MISS:      22795
cpu0_STLB RFO          ACCESS:          0 HIT:          0 MISS:          0
cpu0_STLB PREFETCH     ACCESS:          0 HIT:          0 MISS:          0
cpu0_STLB WRITE        ACCESS:          0 HIT:          0 MISS:          0
cpu0_STLB TRANSLATION  ACCESS:          0 HIT:          0 MISS:          0
cpu0_STLB PREFETCH REQUESTED:          0 ISSUED:          0 USEFUL:          0 USELESS:          0
cpu0_STLB AVERAGE MISS LATENCY: 337.8 cycles

DRAM Statistics

Channel 0 RQ ROW_BUFFER_HIT:      47967
  ROW_BUFFER_MISS:     220578
 AVG DBUS CONGESTED CYCLE: 3.822
WQ ROW_BUFFER_HIT: Channel 0 
  ROW_BUFFER_MISS:       7252
  FULL:      32580
