WARNING: physical memory size is smaller than virtual memory size.

*** ChampSim Multicore Out-of-Order Simulator ***
Warmup Instructions: 50000000
Simulation Instructions: 600000000
Number of CPUs: 1
Page size: 4096

Off-chip DRAM Size: 4 GiB Channels: 1 Width: 64-bit Data Race: 3200 MT/s
Heartbeat CPU 0 instructions: 10000001 cycles: 2500319 heartbeat IPC: 3.999 cumulative IPC: 3.999 (Simulation time: 00 hr 03 min 52 sec)
Heartbeat CPU 0 instructions: 20000002 cycles: 5037090 heartbeat IPC: 3.942 cumulative IPC: 3.971 (Simulation time: 00 hr 07 min 50 sec)
Heartbeat CPU 0 instructions: 30000002 cycles: 7537090 heartbeat IPC: 4 cumulative IPC: 3.98 (Simulation time: 00 hr 11 min 22 sec)
Heartbeat CPU 0 instructions: 40000002 cycles: 10037090 heartbeat IPC: 4 cumulative IPC: 3.985 (Simulation time: 00 hr 15 min 01 sec)
Heartbeat CPU 0 instructions: 50000002 cycles: 12537090 heartbeat IPC: 4 cumulative IPC: 3.988 (Simulation time: 00 hr 18 min 38 sec)
Warmup finished CPU 0 instructions: 50000002 cycles: 12537091 cumulative IPC: 3.988 (Simulation time: 00 hr 18 min 38 sec)
Warmup complete CPU 0 instructions: 50000002 cycles: 12537091 cumulative IPC: 3.988 (Simulation time: 00 hr 18 min 38 sec)
Heartbeat CPU 0 instructions: 60000000 cycles: 17028509 heartbeat IPC: 2.226 cumulative IPC: 2.226 (Simulation time: 00 hr 24 min 00 sec)
Heartbeat CPU 0 instructions: 70000002 cycles: 21215697 heartbeat IPC: 2.388 cumulative IPC: 2.305 (Simulation time: 00 hr 29 min 00 sec)
Heartbeat CPU 0 instructions: 80000001 cycles: 25775292 heartbeat IPC: 2.193 cumulative IPC: 2.266 (Simulation time: 00 hr 34 min 14 sec)
Heartbeat CPU 0 instructions: 90000003 cycles: 29770083 heartbeat IPC: 2.503 cumulative IPC: 2.321 (Simulation time: 00 hr 39 min 09 sec)
Heartbeat CPU 0 instructions: 100000000 cycles: 33932908 heartbeat IPC: 2.402 cumulative IPC: 2.337 (Simulation time: 00 hr 44 min 07 sec)
Heartbeat CPU 0 instructions: 110000000 cycles: 38087951 heartbeat IPC: 2.407 cumulative IPC: 2.348 (Simulation time: 00 hr 49 min 03 sec)
Heartbeat CPU 0 instructions: 120000001 cycles: 42077428 heartbeat IPC: 2.507 cumulative IPC: 2.37 (Simulation time: 00 hr 53 min 59 sec)
Heartbeat CPU 0 instructions: 130000001 cycles: 45854496 heartbeat IPC: 2.648 cumulative IPC: 2.401 (Simulation time: 00 hr 59 min 04 sec)
Heartbeat CPU 0 instructions: 140000001 cycles: 50045780 heartbeat IPC: 2.386 cumulative IPC: 2.399 (Simulation time: 01 hr 04 min 05 sec)
Heartbeat CPU 0 instructions: 150000001 cycles: 54226478 heartbeat IPC: 2.392 cumulative IPC: 2.399 (Simulation time: 01 hr 09 min 04 sec)
Heartbeat CPU 0 instructions: 160000004 cycles: 58502293 heartbeat IPC: 2.339 cumulative IPC: 2.393 (Simulation time: 01 hr 14 min 08 sec)
Heartbeat CPU 0 instructions: 170000001 cycles: 68412735 heartbeat IPC: 1.009 cumulative IPC: 2.148 (Simulation time: 01 hr 22 min 54 sec)
Heartbeat CPU 0 instructions: 180000004 cycles: 79779903 heartbeat IPC: 0.8797 cumulative IPC: 1.933 (Simulation time: 01 hr 32 min 58 sec)
Heartbeat CPU 0 instructions: 190000001 cycles: 91155792 heartbeat IPC: 0.8791 cumulative IPC: 1.781 (Simulation time: 01 hr 42 min 48 sec)
Heartbeat CPU 0 instructions: 200000004 cycles: 95055975 heartbeat IPC: 2.564 cumulative IPC: 1.818 (Simulation time: 01 hr 47 min 39 sec)
Heartbeat CPU 0 instructions: 210000001 cycles: 98879088 heartbeat IPC: 2.616 cumulative IPC: 1.853 (Simulation time: 01 hr 52 min 28 sec)
Heartbeat CPU 0 instructions: 220000000 cycles: 102695612 heartbeat IPC: 2.62 cumulative IPC: 1.886 (Simulation time: 01 hr 57 min 14 sec)
Heartbeat CPU 0 instructions: 230000002 cycles: 107259168 heartbeat IPC: 2.191 cumulative IPC: 1.9 (Simulation time: 02 hr 02 min 22 sec)
Heartbeat CPU 0 instructions: 240000002 cycles: 111407195 heartbeat IPC: 2.411 cumulative IPC: 1.922 (Simulation time: 02 hr 07 min 24 sec)
Heartbeat CPU 0 instructions: 250000000 cycles: 115673975 heartbeat IPC: 2.344 cumulative IPC: 1.939 (Simulation time: 02 hr 12 min 26 sec)
Heartbeat CPU 0 instructions: 260000000 cycles: 119773063 heartbeat IPC: 2.44 cumulative IPC: 1.958 (Simulation time: 02 hr 17 min 21 sec)
Heartbeat CPU 0 instructions: 270000002 cycles: 123657282 heartbeat IPC: 2.575 cumulative IPC: 1.98 (Simulation time: 02 hr 22 min 11 sec)
Heartbeat CPU 0 instructions: 280000002 cycles: 127776669 heartbeat IPC: 2.428 cumulative IPC: 1.996 (Simulation time: 02 hr 27 min 08 sec)
Heartbeat CPU 0 instructions: 290000002 cycles: 131630729 heartbeat IPC: 2.595 cumulative IPC: 2.015 (Simulation time: 02 hr 31 min 58 sec)
Heartbeat CPU 0 instructions: 300000003 cycles: 135507635 heartbeat IPC: 2.579 cumulative IPC: 2.033 (Simulation time: 02 hr 37 min 03 sec)
Heartbeat CPU 0 instructions: 310000001 cycles: 139633777 heartbeat IPC: 2.424 cumulative IPC: 2.046 (Simulation time: 02 hr 42 min 01 sec)
Heartbeat CPU 0 instructions: 320000003 cycles: 143687429 heartbeat IPC: 2.467 cumulative IPC: 2.059 (Simulation time: 02 hr 46 min 51 sec)
Heartbeat CPU 0 instructions: 330000003 cycles: 148022004 heartbeat IPC: 2.307 cumulative IPC: 2.067 (Simulation time: 02 hr 51 min 54 sec)
Heartbeat CPU 0 instructions: 340000000 cycles: 158280761 heartbeat IPC: 0.9748 cumulative IPC: 1.99 (Simulation time: 03 hr 00 min 53 sec)
Heartbeat CPU 0 instructions: 350000000 cycles: 169993173 heartbeat IPC: 0.8538 cumulative IPC: 1.905 (Simulation time: 03 hr 10 min 54 sec)
Heartbeat CPU 0 instructions: 360000004 cycles: 181191597 heartbeat IPC: 0.893 cumulative IPC: 1.838 (Simulation time: 03 hr 20 min 32 sec)
Heartbeat CPU 0 instructions: 370000001 cycles: 184662825 heartbeat IPC: 2.881 cumulative IPC: 1.859 (Simulation time: 03 hr 25 min 21 sec)
Heartbeat CPU 0 instructions: 380000001 cycles: 188072216 heartbeat IPC: 2.933 cumulative IPC: 1.88 (Simulation time: 03 hr 30 min 02 sec)
Heartbeat CPU 0 instructions: 390000004 cycles: 191645250 heartbeat IPC: 2.799 cumulative IPC: 1.898 (Simulation time: 03 hr 34 min 40 sec)
Heartbeat CPU 0 instructions: 400000004 cycles: 195190137 heartbeat IPC: 2.821 cumulative IPC: 1.916 (Simulation time: 03 hr 39 min 17 sec)
Heartbeat CPU 0 instructions: 410000001 cycles: 198954510 heartbeat IPC: 2.656 cumulative IPC: 1.931 (Simulation time: 03 hr 44 min 00 sec)
Heartbeat CPU 0 instructions: 420000002 cycles: 203127870 heartbeat IPC: 2.396 cumulative IPC: 1.941 (Simulation time: 03 hr 48 min 58 sec)
Heartbeat CPU 0 instructions: 430000001 cycles: 206734637 heartbeat IPC: 2.773 cumulative IPC: 1.957 (Simulation time: 03 hr 53 min 57 sec)
Heartbeat CPU 0 instructions: 440000004 cycles: 210690504 heartbeat IPC: 2.528 cumulative IPC: 1.968 (Simulation time: 03 hr 58 min 48 sec)
Heartbeat CPU 0 instructions: 450000002 cycles: 214205357 heartbeat IPC: 2.845 cumulative IPC: 1.983 (Simulation time: 04 hr 03 min 26 sec)
Heartbeat CPU 0 instructions: 460000000 cycles: 217745400 heartbeat IPC: 2.825 cumulative IPC: 1.998 (Simulation time: 04 hr 08 min 03 sec)
Heartbeat CPU 0 instructions: 470000001 cycles: 221236169 heartbeat IPC: 2.865 cumulative IPC: 2.012 (Simulation time: 04 hr 12 min 43 sec)
Heartbeat CPU 0 instructions: 480000003 cycles: 225026407 heartbeat IPC: 2.638 cumulative IPC: 2.024 (Simulation time: 04 hr 17 min 28 sec)
Heartbeat CPU 0 instructions: 490000000 cycles: 228516665 heartbeat IPC: 2.865 cumulative IPC: 2.037 (Simulation time: 04 hr 22 min 03 sec)
Heartbeat CPU 0 instructions: 500000004 cycles: 232146270 heartbeat IPC: 2.755 cumulative IPC: 2.049 (Simulation time: 04 hr 26 min 42 sec)
Heartbeat CPU 0 instructions: 510000003 cycles: 235894022 heartbeat IPC: 2.668 cumulative IPC: 2.059 (Simulation time: 04 hr 31 min 31 sec)
Heartbeat CPU 0 instructions: 520000000 cycles: 239272752 heartbeat IPC: 2.96 cumulative IPC: 2.073 (Simulation time: 04 hr 36 min 09 sec)
Heartbeat CPU 0 instructions: 530000002 cycles: 242987033 heartbeat IPC: 2.692 cumulative IPC: 2.083 (Simulation time: 04 hr 40 min 51 sec)
Heartbeat CPU 0 instructions: 540000000 cycles: 246518605 heartbeat IPC: 2.832 cumulative IPC: 2.094 (Simulation time: 04 hr 45 min 30 sec)
Heartbeat CPU 0 instructions: 550000001 cycles: 250175411 heartbeat IPC: 2.735 cumulative IPC: 2.104 (Simulation time: 04 hr 50 min 14 sec)
Heartbeat CPU 0 instructions: 560000004 cycles: 254125886 heartbeat IPC: 2.531 cumulative IPC: 2.111 (Simulation time: 04 hr 55 min 18 sec)
Heartbeat CPU 0 instructions: 570000004 cycles: 260795736 heartbeat IPC: 1.499 cumulative IPC: 2.095 (Simulation time: 05 hr 02 min 02 sec)
Heartbeat CPU 0 instructions: 580000003 cycles: 271861889 heartbeat IPC: 0.9037 cumulative IPC: 2.044 (Simulation time: 05 hr 11 min 42 sec)
Heartbeat CPU 0 instructions: 590000002 cycles: 286772733 heartbeat IPC: 0.6707 cumulative IPC: 1.969 (Simulation time: 05 hr 23 min 45 sec)
Heartbeat CPU 0 instructions: 600000000 cycles: 290548633 heartbeat IPC: 2.648 cumulative IPC: 1.978 (Simulation time: 05 hr 28 min 36 sec)
Heartbeat CPU 0 instructions: 610000002 cycles: 294326436 heartbeat IPC: 2.647 cumulative IPC: 1.987 (Simulation time: 05 hr 33 min 16 sec)
Heartbeat CPU 0 instructions: 620000001 cycles: 297721762 heartbeat IPC: 2.945 cumulative IPC: 1.999 (Simulation time: 05 hr 37 min 50 sec)
Heartbeat CPU 0 instructions: 630000002 cycles: 301854968 heartbeat IPC: 2.419 cumulative IPC: 2.005 (Simulation time: 05 hr 42 min 49 sec)
Heartbeat CPU 0 instructions: 640000001 cycles: 305617456 heartbeat IPC: 2.658 cumulative IPC: 2.013 (Simulation time: 05 hr 47 min 34 sec)
Heartbeat CPU 0 instructions: 650000000 cycles: 309275022 heartbeat IPC: 2.734 cumulative IPC: 2.022 (Simulation time: 05 hr 52 min 12 sec)
Simulation finished CPU 0 instructions: 600000001 cycles: 296737933 cumulative IPC: 2.022 (Simulation time: 05 hr 52 min 12 sec)
Simulation complete CPU 0 instructions: 600000001 cycles: 296737933 cumulative IPC: 2.022 (Simulation time: 05 hr 52 min 12 sec)

ChampSim completed all CPUs

=== Simulation ===
CPU 0 runs traces/400.perlbench-41B.champsimtrace.xz
Region of Interest Statistics

CPU 0 cumulative IPC: 2.022 instructions: 600000001 cycles: 296737933
CPU 0 Branch Prediction Accuracy: 96.64% MPKI: 6.948 Average ROB Occupancy at Mispredict: 46
Branch type MPKI
BRANCH_DIRECT_JUMP: 0.0123
BRANCH_INDIRECT: 0.323
BRANCH_CONDITIONAL: 6.4
BRANCH_DIRECT_CALL: 0.0043
BRANCH_INDIRECT_CALL: 0.2
BRANCH_RETURN: 0.00828

LLC TOTAL        ACCESS:     674963 HIT:     260132 MISS:     414831
LLC LOAD         ACCESS:     308129 HIT:     139596 MISS:     168533
LLC RFO          ACCESS:      25029 HIT:       7463 MISS:      17566
LLC PREFETCH     ACCESS:     262100 HIT:      87281 MISS:     174819
LLC WRITE        ACCESS:      64030 HIT:      24715 MISS:      39315
LLC TRANSLATION  ACCESS:      15675 HIT:       1077 MISS:      14598
LLC PREFETCH REQUESTED:     262106 ISSUED:     262100 USEFUL:      29029 USELESS:     139509
LLC AVERAGE MISS LATENCY: 631.3 cycles
cpu0_DTLB TOTAL        ACCESS:  141337223 HIT:  140663079 MISS:     674144
cpu0_DTLB LOAD         ACCESS:  141337223 HIT:  140663079 MISS:     674144
cpu0_DTLB RFO          ACCESS:          0 HIT:          0 MISS:          0
cpu0_DTLB PREFETCH     ACCESS:          0 HIT:          0 MISS:          0
cpu0_DTLB WRITE        ACCESS:          0 HIT:          0 MISS:          0
cpu0_DTLB TRANSLATION  ACCESS:          0 HIT:          0 MISS:          0
cpu0_DTLB PREFETCH REQUESTED:          0 ISSUED:          0 USEFUL:          0 USELESS:          0
cpu0_DTLB AVERAGE MISS LATENCY: 20.26 cycles
cpu0_ITLB TOTAL        ACCESS:    4857379 HIT:    4810668 MISS:      46711
cpu0_ITLB LOAD         ACCESS:    4857379 HIT:    4810668 MISS:      46711
cpu0_ITLB RFO          ACCESS:          0 HIT:          0 MISS:          0
cpu0_ITLB PREFETCH     ACCESS:          0 HIT:          0 MISS:          0
cpu0_ITLB WRITE        ACCESS:          0 HIT:          0 MISS:          0
cpu0_ITLB TRANSLATION  ACCESS:          0 HIT:          0 MISS:          0
cpu0_ITLB PREFETCH REQUESTED:          0 ISSUED:          0 USEFUL:          0 USELESS:          0
cpu0_ITLB AVERAGE MISS LATENCY: 10.32 cycles
cpu0_L1D TOTAL        ACCESS:  187991043 HIT:  186694914 MISS:    1296129
cpu0_L1D LOAD         ACCESS:  104664830 HIT:  103677507 MISS:     987323
cpu0_L1D RFO          ACCESS:          0 HIT:          0 MISS:          0
cpu0_L1D PREFETCH     ACCESS:          0 HIT:          0 MISS:          0
cpu0_L1D WRITE        ACCESS:   83301745 HIT:   83015807 MISS:     285938
cpu0_L1D TRANSLATION  ACCESS:      24468 HIT:       1600 MISS:      22868
cpu0_L1D PREFETCH REQUESTED:          0 ISSUED:          0 USEFUL:          0 USELESS:          0
cpu0_L1D AVERAGE MISS LATENCY: 100.5 cycles
cpu0_L1I TOTAL        ACCESS:    5594878 HIT:    4874612 MISS:     720266
cpu0_L1I LOAD         ACCESS:    5594878 HIT:    4874612 MISS:     720266
cpu0_L1I RFO          ACCESS:          0 HIT:          0 MISS:          0
cpu0_L1I PREFETCH     ACCESS:          0 HIT:          0 MISS:          0
cpu0_L1I WRITE        ACCESS:          0 HIT:          0 MISS:          0
cpu0_L1I TRANSLATION  ACCESS:          0 HIT:          0 MISS:          0
cpu0_L1I PREFETCH REQUESTED:          0 ISSUED:          0 USEFUL:          0 USELESS:          0
cpu0_L1I AVERAGE MISS LATENCY: 14.11 cycles
cpu0_L2C TOTAL        ACCESS:    1381128 HIT:    1031475 MISS:     349653
cpu0_L2C LOAD         ACCESS:    1124989 HIT:     816860 MISS:     308129
cpu0_L2C RFO          ACCESS:      63658 HIT:      38629 MISS:      25029
cpu0_L2C PREFETCH     ACCESS:          0 HIT:          0 MISS:          0
cpu0_L2C WRITE        ACCESS:     169677 HIT:     168857 MISS:        820
cpu0_L2C TRANSLATION  ACCESS:      22804 HIT:       7129 MISS:      15675
cpu0_L2C PREFETCH REQUESTED:          0 ISSUED:          0 USEFUL:          0 USELESS:          0
cpu0_L2C AVERAGE MISS LATENCY: 377.2 cycles
cpu0_STLB TOTAL        ACCESS:     505835 HIT:     483044 MISS:      22791
cpu0_STLB LOAD         ACCESS:     505835 HIT:     483044 MISS:      22791
cpu0_STLB RFO          ACCESS:          0 HIT:          0 MISS:          0
cpu0_STLB PREFETCH     ACCESS:          0 HIT:          0 MISS:          0
cpu0_STLB WRITE        ACCESS:          0 HIT:          0 MISS:          0
cpu0_STLB TRANSLATION  ACCESS:          0 HIT:          0 MISS:          0
cpu0_STLB PREFETCH REQUESTED:          0 ISSUED:          0 USEFUL:          0 USELESS:          0
cpu0_STLB AVERAGE MISS LATENCY: 479 cycles

DRAM Statistics

Channel 0 RQ ROW_BUFFER_HIT:     110022
  ROW_BUFFER_MISS:     260217
 AVG DBUS CONGESTED CYCLE: 3.886
WQ ROW_BUFFER_HIT: Channel 0 
  ROW_BUFFER_MISS:       6961
  FULL:      33923
