WARNING: physical memory size is smaller than virtual memory size.

*** ChampSim Multicore Out-of-Order Simulator ***
Warmup Instructions: 50000000
Simulation Instructions: 600000000
Number of CPUs: 1
Page size: 4096

Off-chip DRAM Size: 4 GiB Channels: 1 Width: 64-bit Data Race: 3200 MT/s
Heartbeat CPU 0 instructions: 10000001 cycles: 2500319 heartbeat IPC: 3.999 cumulative IPC: 3.999 (Simulation time: 00 hr 03 min 40 sec)
Heartbeat CPU 0 instructions: 20000002 cycles: 5037096 heartbeat IPC: 3.942 cumulative IPC: 3.971 (Simulation time: 00 hr 07 min 27 sec)
Heartbeat CPU 0 instructions: 30000002 cycles: 7537096 heartbeat IPC: 4 cumulative IPC: 3.98 (Simulation time: 00 hr 10 min 52 sec)
Heartbeat CPU 0 instructions: 40000002 cycles: 10037096 heartbeat IPC: 4 cumulative IPC: 3.985 (Simulation time: 00 hr 14 min 17 sec)
Heartbeat CPU 0 instructions: 50000002 cycles: 12537096 heartbeat IPC: 4 cumulative IPC: 3.988 (Simulation time: 00 hr 17 min 43 sec)
Warmup finished CPU 0 instructions: 50000002 cycles: 12537097 cumulative IPC: 3.988 (Simulation time: 00 hr 17 min 43 sec)
Warmup complete CPU 0 instructions: 50000002 cycles: 12537097 cumulative IPC: 3.988 (Simulation time: 00 hr 17 min 43 sec)
Heartbeat CPU 0 instructions: 60000000 cycles: 17709372 heartbeat IPC: 1.933 cumulative IPC: 1.933 (Simulation time: 00 hr 22 min 58 sec)
Heartbeat CPU 0 instructions: 70000002 cycles: 22607613 heartbeat IPC: 2.042 cumulative IPC: 1.986 (Simulation time: 00 hr 28 min 14 sec)
Heartbeat CPU 0 instructions: 80000001 cycles: 27964309 heartbeat IPC: 1.867 cumulative IPC: 1.945 (Simulation time: 00 hr 33 min 39 sec)
Heartbeat CPU 0 instructions: 90000001 cycles: 32830248 heartbeat IPC: 2.055 cumulative IPC: 1.971 (Simulation time: 00 hr 38 min 52 sec)
Heartbeat CPU 0 instructions: 100000000 cycles: 37943746 heartbeat IPC: 1.956 cumulative IPC: 1.968 (Simulation time: 00 hr 44 min 18 sec)
Heartbeat CPU 0 instructions: 110000000 cycles: 42824755 heartbeat IPC: 2.049 cumulative IPC: 1.981 (Simulation time: 00 hr 49 min 26 sec)
Heartbeat CPU 0 instructions: 120000001 cycles: 48023115 heartbeat IPC: 1.924 cumulative IPC: 1.973 (Simulation time: 00 hr 54 min 49 sec)
Heartbeat CPU 0 instructions: 130000001 cycles: 53180513 heartbeat IPC: 1.939 cumulative IPC: 1.968 (Simulation time: 01 hr 00 min 10 sec)
Heartbeat CPU 0 instructions: 140000001 cycles: 58494631 heartbeat IPC: 1.882 cumulative IPC: 1.958 (Simulation time: 01 hr 05 min 38 sec)
Heartbeat CPU 0 instructions: 150000001 cycles: 63812662 heartbeat IPC: 1.88 cumulative IPC: 1.95 (Simulation time: 01 hr 11 min 07 sec)
Heartbeat CPU 0 instructions: 160000004 cycles: 69025113 heartbeat IPC: 1.918 cumulative IPC: 1.947 (Simulation time: 01 hr 16 min 32 sec)
Heartbeat CPU 0 instructions: 170000000 cycles: 79055496 heartbeat IPC: 0.997 cumulative IPC: 1.804 (Simulation time: 01 hr 25 min 12 sec)
Heartbeat CPU 0 instructions: 180000004 cycles: 89521565 heartbeat IPC: 0.9555 cumulative IPC: 1.689 (Simulation time: 01 hr 34 min 22 sec)
Heartbeat CPU 0 instructions: 190000001 cycles: 100119139 heartbeat IPC: 0.9436 cumulative IPC: 1.599 (Simulation time: 01 hr 43 min 26 sec)
Heartbeat CPU 0 instructions: 200000003 cycles: 104896237 heartbeat IPC: 2.093 cumulative IPC: 1.624 (Simulation time: 01 hr 48 min 37 sec)
Heartbeat CPU 0 instructions: 210000001 cycles: 109821801 heartbeat IPC: 2.03 cumulative IPC: 1.645 (Simulation time: 01 hr 53 min 57 sec)
Heartbeat CPU 0 instructions: 220000000 cycles: 114653053 heartbeat IPC: 2.07 cumulative IPC: 1.665 (Simulation time: 01 hr 59 min 12 sec)
Heartbeat CPU 0 instructions: 230000002 cycles: 119972338 heartbeat IPC: 1.88 cumulative IPC: 1.675 (Simulation time: 02 hr 04 min 37 sec)
Heartbeat CPU 0 instructions: 240000000 cycles: 124817983 heartbeat IPC: 2.064 cumulative IPC: 1.692 (Simulation time: 02 hr 09 min 53 sec)
Heartbeat CPU 0 instructions: 250000000 cycles: 129969727 heartbeat IPC: 1.941 cumulative IPC: 1.703 (Simulation time: 02 hr 15 min 16 sec)
Heartbeat CPU 0 instructions: 260000000 cycles: 134986278 heartbeat IPC: 1.993 cumulative IPC: 1.715 (Simulation time: 02 hr 20 min 36 sec)
Heartbeat CPU 0 instructions: 270000002 cycles: 139874240 heartbeat IPC: 2.046 cumulative IPC: 1.728 (Simulation time: 02 hr 25 min 53 sec)
Heartbeat CPU 0 instructions: 280000002 cycles: 144777992 heartbeat IPC: 2.039 cumulative IPC: 1.739 (Simulation time: 02 hr 31 min 04 sec)
Heartbeat CPU 0 instructions: 290000001 cycles: 150147061 heartbeat IPC: 1.863 cumulative IPC: 1.744 (Simulation time: 02 hr 36 min 35 sec)
Heartbeat CPU 0 instructions: 300000003 cycles: 155204067 heartbeat IPC: 1.977 cumulative IPC: 1.752 (Simulation time: 02 hr 41 min 55 sec)
Heartbeat CPU 0 instructions: 310000001 cycles: 160512847 heartbeat IPC: 1.884 cumulative IPC: 1.757 (Simulation time: 02 hr 47 min 25 sec)
Heartbeat CPU 0 instructions: 320000003 cycles: 165721283 heartbeat IPC: 1.92 cumulative IPC: 1.763 (Simulation time: 02 hr 52 min 51 sec)
Heartbeat CPU 0 instructions: 330000003 cycles: 171018479 heartbeat IPC: 1.888 cumulative IPC: 1.767 (Simulation time: 02 hr 58 min 19 sec)
Heartbeat CPU 0 instructions: 340000000 cycles: 181204341 heartbeat IPC: 0.9818 cumulative IPC: 1.719 (Simulation time: 03 hr 07 min 07 sec)
Heartbeat CPU 0 instructions: 350000000 cycles: 192146310 heartbeat IPC: 0.9139 cumulative IPC: 1.67 (Simulation time: 03 hr 16 min 29 sec)
Heartbeat CPU 0 instructions: 360000004 cycles: 202838802 heartbeat IPC: 0.9352 cumulative IPC: 1.629 (Simulation time: 03 hr 25 min 34 sec)
Heartbeat CPU 0 instructions: 370000000 cycles: 207247142 heartbeat IPC: 2.268 cumulative IPC: 1.643 (Simulation time: 03 hr 30 min 30 sec)
Heartbeat CPU 0 instructions: 380000001 cycles: 212181266 heartbeat IPC: 2.027 cumulative IPC: 1.653 (Simulation time: 03 hr 35 min 50 sec)
Heartbeat CPU 0 instructions: 390000002 cycles: 217004043 heartbeat IPC: 2.073 cumulative IPC: 1.663 (Simulation time: 03 hr 41 min 18 sec)
Heartbeat CPU 0 instructions: 400000004 cycles: 221936114 heartbeat IPC: 2.028 cumulative IPC: 1.671 (Simulation time: 03 hr 46 min 33 sec)
Heartbeat CPU 0 instructions: 410000000 cycles: 226659623 heartbeat IPC: 2.117 cumulative IPC: 1.681 (Simulation time: 03 hr 51 min 45 sec)
Heartbeat CPU 0 instructions: 420000000 cycles: 231856909 heartbeat IPC: 1.924 cumulative IPC: 1.687 (Simulation time: 03 hr 57 min 06 sec)
Heartbeat CPU 0 instructions: 430000001 cycles: 236321759 heartbeat IPC: 2.24 cumulative IPC: 1.698 (Simulation time: 04 hr 02 min 04 sec)
Heartbeat CPU 0 instructions: 440000000 cycles: 241658251 heartbeat IPC: 1.874 cumulative IPC: 1.702 (Simulation time: 04 hr 07 min 32 sec)
Heartbeat CPU 0 instructions: 450000002 cycles: 246316664 heartbeat IPC: 2.147 cumulative IPC: 1.711 (Simulation time: 04 hr 12 min 39 sec)
Heartbeat CPU 0 instructions: 460000000 cycles: 251099339 heartbeat IPC: 2.091 cumulative IPC: 1.719 (Simulation time: 04 hr 17 min 59 sec)
Heartbeat CPU 0 instructions: 470000000 cycles: 256073265 heartbeat IPC: 2.01 cumulative IPC: 1.725 (Simulation time: 04 hr 23 min 19 sec)
Heartbeat CPU 0 instructions: 480000003 cycles: 260852298 heartbeat IPC: 2.092 cumulative IPC: 1.732 (Simulation time: 04 hr 28 min 24 sec)
Heartbeat CPU 0 instructions: 490000000 cycles: 265452418 heartbeat IPC: 2.174 cumulative IPC: 1.74 (Simulation time: 04 hr 33 min 26 sec)
Heartbeat CPU 0 instructions: 500000000 cycles: 270467660 heartbeat IPC: 1.994 cumulative IPC: 1.745 (Simulation time: 04 hr 38 min 45 sec)
Heartbeat CPU 0 instructions: 510000003 cycles: 276092109 heartbeat IPC: 1.778 cumulative IPC: 1.745 (Simulation time: 04 hr 44 min 26 sec)
Heartbeat CPU 0 instructions: 520000001 cycles: 280771879 heartbeat IPC: 2.137 cumulative IPC: 1.752 (Simulation time: 04 hr 49 min 35 sec)
Heartbeat CPU 0 instructions: 530000002 cycles: 285909849 heartbeat IPC: 1.946 cumulative IPC: 1.756 (Simulation time: 04 hr 54 min 54 sec)
Heartbeat CPU 0 instructions: 540000000 cycles: 291026703 heartbeat IPC: 1.954 cumulative IPC: 1.759 (Simulation time: 05 hr 00 min 19 sec)
Heartbeat CPU 0 instructions: 550000001 cycles: 295831983 heartbeat IPC: 2.081 cumulative IPC: 1.765 (Simulation time: 05 hr 05 min 30 sec)
Heartbeat CPU 0 instructions: 560000000 cycles: 301038980 heartbeat IPC: 1.92 cumulative IPC: 1.768 (Simulation time: 05 hr 10 min 54 sec)
Heartbeat CPU 0 instructions: 570000004 cycles: 308223458 heartbeat IPC: 1.392 cumulative IPC: 1.759 (Simulation time: 05 hr 17 min 52 sec)
Heartbeat CPU 0 instructions: 580000003 cycles: 319764984 heartbeat IPC: 0.8664 cumulative IPC: 1.725 (Simulation time: 05 hr 27 min 39 sec)
Heartbeat CPU 0 instructions: 590000002 cycles: 332881676 heartbeat IPC: 0.7624 cumulative IPC: 1.686 (Simulation time: 05 hr 38 min 29 sec)
Heartbeat CPU 0 instructions: 600000000 cycles: 337508911 heartbeat IPC: 2.161 cumulative IPC: 1.692 (Simulation time: 05 hr 43 min 47 sec)
Heartbeat CPU 0 instructions: 610000002 cycles: 342001638 heartbeat IPC: 2.226 cumulative IPC: 1.7 (Simulation time: 05 hr 48 min 45 sec)
Heartbeat CPU 0 instructions: 620000000 cycles: 346809455 heartbeat IPC: 2.08 cumulative IPC: 1.705 (Simulation time: 05 hr 54 min 09 sec)
Heartbeat CPU 0 instructions: 630000002 cycles: 351896740 heartbeat IPC: 1.966 cumulative IPC: 1.709 (Simulation time: 05 hr 59 min 40 sec)
Heartbeat CPU 0 instructions: 640000001 cycles: 356747487 heartbeat IPC: 2.062 cumulative IPC: 1.714 (Simulation time: 06 hr 04 min 55 sec)
Heartbeat CPU 0 instructions: 650000000 cycles: 361300479 heartbeat IPC: 2.196 cumulative IPC: 1.72 (Simulation time: 06 hr 10 min 08 sec)
Simulation finished CPU 0 instructions: 600000001 cycles: 348763384 cumulative IPC: 1.72 (Simulation time: 06 hr 10 min 08 sec)
Simulation complete CPU 0 instructions: 600000001 cycles: 348763384 cumulative IPC: 1.72 (Simulation time: 06 hr 10 min 08 sec)

ChampSim completed all CPUs

=== Simulation ===
CPU 0 runs traces/400.perlbench-41B.champsimtrace.xz
Region of Interest Statistics

CPU 0 cumulative IPC: 1.72 instructions: 600000001 cycles: 348763384
CPU 0 Branch Prediction Accuracy: 93.95% MPKI: 12.5 Average ROB Occupancy at Mispredict: 29.48
Branch type MPKI
BRANCH_DIRECT_JUMP: 0.0123
BRANCH_INDIRECT: 0.323
BRANCH_CONDITIONAL: 12
BRANCH_DIRECT_CALL: 0.0043
BRANCH_INDIRECT_CALL: 0.2
BRANCH_RETURN: 0.00828

LLC TOTAL        ACCESS:     721505 HIT:     286614 MISS:     434891
LLC LOAD         ACCESS:     308246 HIT:     112668 MISS:     195578
LLC RFO          ACCESS:      25133 HIT:       8172 MISS:      16961
LLC PREFETCH     ACCESS:     308246 HIT:      98754 MISS:     209492
LLC WRITE        ACCESS:      64210 HIT:      62463 MISS:       1747
LLC TRANSLATION  ACCESS:      15670 HIT:       4557 MISS:      11113
LLC PREFETCH REQUESTED:     308246 ISSUED:     308246 USEFUL:      76855 USELESS:      81249
LLC AVERAGE MISS LATENCY: 581.3 cycles
cpu0_DTLB TOTAL        ACCESS:  153667655 HIT:  152991341 MISS:     676314
cpu0_DTLB LOAD         ACCESS:  153667655 HIT:  152991341 MISS:     676314
cpu0_DTLB RFO          ACCESS:          0 HIT:          0 MISS:          0
cpu0_DTLB PREFETCH     ACCESS:          0 HIT:          0 MISS:          0
cpu0_DTLB WRITE        ACCESS:          0 HIT:          0 MISS:          0
cpu0_DTLB TRANSLATION  ACCESS:          0 HIT:          0 MISS:          0
cpu0_DTLB PREFETCH REQUESTED:          0 ISSUED:          0 USEFUL:          0 USELESS:          0
cpu0_DTLB AVERAGE MISS LATENCY: 17.83 cycles
cpu0_ITLB TOTAL        ACCESS:    4835528 HIT:    4777487 MISS:      58041
cpu0_ITLB LOAD         ACCESS:    4835528 HIT:    4777487 MISS:      58041
cpu0_ITLB RFO          ACCESS:          0 HIT:          0 MISS:          0
cpu0_ITLB PREFETCH     ACCESS:          0 HIT:          0 MISS:          0
cpu0_ITLB WRITE        ACCESS:          0 HIT:          0 MISS:          0
cpu0_ITLB TRANSLATION  ACCESS:          0 HIT:          0 MISS:          0
cpu0_ITLB PREFETCH REQUESTED:          0 ISSUED:          0 USEFUL:          0 USELESS:          0
cpu0_ITLB AVERAGE MISS LATENCY: 8.203 cycles
cpu0_L1D TOTAL        ACCESS:  200300446 HIT:  198961986 MISS:    1338460
cpu0_L1D LOAD         ACCESS:  117056844 HIT:  116031122 MISS:    1025722
cpu0_L1D RFO          ACCESS:          0 HIT:          0 MISS:          0
cpu0_L1D PREFETCH     ACCESS:          0 HIT:          0 MISS:          0
cpu0_L1D WRITE        ACCESS:   83219137 HIT:   82929288 MISS:     289849
cpu0_L1D TRANSLATION  ACCESS:      24465 HIT:       1576 MISS:      22889
cpu0_L1D PREFETCH REQUESTED:          0 ISSUED:          0 USEFUL:          0 USELESS:          0
cpu0_L1D AVERAGE MISS LATENCY: 108.3 cycles
cpu0_L1I TOTAL        ACCESS:    5577750 HIT:    4815659 MISS:     762091
cpu0_L1I LOAD         ACCESS:    5577750 HIT:    4815659 MISS:     762091
cpu0_L1I RFO          ACCESS:          0 HIT:          0 MISS:          0
cpu0_L1I PREFETCH     ACCESS:          0 HIT:          0 MISS:          0
cpu0_L1I WRITE        ACCESS:          0 HIT:          0 MISS:          0
cpu0_L1I TRANSLATION  ACCESS:          0 HIT:          0 MISS:          0
cpu0_L1I PREFETCH REQUESTED:          0 ISSUED:          0 USEFUL:          0 USELESS:          0
cpu0_L1I AVERAGE MISS LATENCY: 14.07 cycles
cpu0_L2C TOTAL        ACCESS:    1382465 HIT:    1032553 MISS:     349912
cpu0_L2C LOAD         ACCESS:    1125642 HIT:     817396 MISS:     308246
cpu0_L2C RFO          ACCESS:      63905 HIT:      38772 MISS:      25133
cpu0_L2C PREFETCH     ACCESS:          0 HIT:          0 MISS:          0
cpu0_L2C WRITE        ACCESS:     170112 HIT:     169249 MISS:        863
cpu0_L2C TRANSLATION  ACCESS:      22806 HIT:       7136 MISS:      15670
cpu0_L2C PREFETCH REQUESTED:          0 ISSUED:          0 USEFUL:          0 USELESS:          0
cpu0_L2C AVERAGE MISS LATENCY: 422.8 cycles
cpu0_STLB TOTAL        ACCESS:     505078 HIT:     482288 MISS:      22790
cpu0_STLB LOAD         ACCESS:     505078 HIT:     482288 MISS:      22790
cpu0_STLB RFO          ACCESS:          0 HIT:          0 MISS:          0
cpu0_STLB PREFETCH     ACCESS:          0 HIT:          0 MISS:          0
cpu0_STLB WRITE        ACCESS:          0 HIT:          0 MISS:          0
cpu0_STLB TRANSLATION  ACCESS:          0 HIT:          0 MISS:          0
cpu0_STLB PREFETCH REQUESTED:          0 ISSUED:          0 USEFUL:          0 USELESS:          0
cpu0_STLB AVERAGE MISS LATENCY: 412.6 cycles

DRAM Statistics

Channel 0 RQ ROW_BUFFER_HIT:      64084
  ROW_BUFFER_MISS:     304016
 AVG DBUS CONGESTED CYCLE: 3.876
WQ ROW_BUFFER_HIT: Channel 0 
  ROW_BUFFER_MISS:       5188
  FULL:      43709
