WARNING: physical memory size is smaller than virtual memory size.

*** ChampSim Multicore Out-of-Order Simulator ***
Warmup Instructions: 50000000
Simulation Instructions: 600000000
Number of CPUs: 1
Page size: 4096

Off-chip DRAM Size: 4 GiB Channels: 1 Width: 64-bit Data Race: 3200 MT/s
Heartbeat CPU 0 instructions: 10000000 cycles: 2500061 heartbeat IPC: 4 cumulative IPC: 4 (Simulation time: 00 hr 03 min 37 sec)
Heartbeat CPU 0 instructions: 20000000 cycles: 5000061 heartbeat IPC: 4 cumulative IPC: 4 (Simulation time: 00 hr 07 min 00 sec)
Heartbeat CPU 0 instructions: 30000000 cycles: 7500061 heartbeat IPC: 4 cumulative IPC: 4 (Simulation time: 00 hr 10 min 26 sec)
Heartbeat CPU 0 instructions: 40000000 cycles: 10000061 heartbeat IPC: 4 cumulative IPC: 4 (Simulation time: 00 hr 13 min 47 sec)
Heartbeat CPU 0 instructions: 50000000 cycles: 12500061 heartbeat IPC: 4 cumulative IPC: 4 (Simulation time: 00 hr 17 min 20 sec)
Warmup finished CPU 0 instructions: 50000000 cycles: 12500062 cumulative IPC: 4 (Simulation time: 00 hr 17 min 20 sec)
Warmup complete CPU 0 instructions: 50000000 cycles: 12500062 cumulative IPC: 4 (Simulation time: 00 hr 17 min 20 sec)
Heartbeat CPU 0 instructions: 60000002 cycles: 16435171 heartbeat IPC: 2.541 cumulative IPC: 2.541 (Simulation time: 00 hr 22 min 01 sec)
Heartbeat CPU 0 instructions: 70000003 cycles: 20748499 heartbeat IPC: 2.318 cumulative IPC: 2.425 (Simulation time: 00 hr 26 min 53 sec)
Heartbeat CPU 0 instructions: 80000003 cycles: 25211542 heartbeat IPC: 2.241 cumulative IPC: 2.36 (Simulation time: 00 hr 32 min 00 sec)
Heartbeat CPU 0 instructions: 90000000 cycles: 28901427 heartbeat IPC: 2.71 cumulative IPC: 2.439 (Simulation time: 00 hr 36 min 30 sec)
Heartbeat CPU 0 instructions: 100000003 cycles: 32794853 heartbeat IPC: 2.568 cumulative IPC: 2.464 (Simulation time: 00 hr 41 min 05 sec)
Heartbeat CPU 0 instructions: 110000002 cycles: 36885725 heartbeat IPC: 2.444 cumulative IPC: 2.46 (Simulation time: 00 hr 45 min 44 sec)
Heartbeat CPU 0 instructions: 120000001 cycles: 40598644 heartbeat IPC: 2.693 cumulative IPC: 2.491 (Simulation time: 00 hr 50 min 15 sec)
Heartbeat CPU 0 instructions: 130000003 cycles: 44363209 heartbeat IPC: 2.656 cumulative IPC: 2.511 (Simulation time: 00 hr 54 min 47 sec)
Heartbeat CPU 0 instructions: 140000002 cycles: 48488199 heartbeat IPC: 2.424 cumulative IPC: 2.501 (Simulation time: 00 hr 59 min 30 sec)
Heartbeat CPU 0 instructions: 150000001 cycles: 52532064 heartbeat IPC: 2.473 cumulative IPC: 2.498 (Simulation time: 01 hr 04 min 10 sec)
Heartbeat CPU 0 instructions: 160000000 cycles: 56181064 heartbeat IPC: 2.74 cumulative IPC: 2.518 (Simulation time: 01 hr 08 min 36 sec)
Heartbeat CPU 0 instructions: 170000001 cycles: 60346253 heartbeat IPC: 2.401 cumulative IPC: 2.508 (Simulation time: 01 hr 13 min 22 sec)
Heartbeat CPU 0 instructions: 180000001 cycles: 63801912 heartbeat IPC: 2.894 cumulative IPC: 2.534 (Simulation time: 01 hr 17 min 44 sec)
Heartbeat CPU 0 instructions: 190000002 cycles: 67378787 heartbeat IPC: 2.796 cumulative IPC: 2.551 (Simulation time: 01 hr 22 min 12 sec)
Heartbeat CPU 0 instructions: 200000002 cycles: 71149017 heartbeat IPC: 2.652 cumulative IPC: 2.558 (Simulation time: 01 hr 26 min 47 sec)
Heartbeat CPU 0 instructions: 210000000 cycles: 74783578 heartbeat IPC: 2.751 cumulative IPC: 2.569 (Simulation time: 01 hr 31 min 13 sec)
Heartbeat CPU 0 instructions: 220000001 cycles: 78652213 heartbeat IPC: 2.585 cumulative IPC: 2.57 (Simulation time: 01 hr 35 min 48 sec)
Heartbeat CPU 0 instructions: 230000002 cycles: 82490697 heartbeat IPC: 2.605 cumulative IPC: 2.572 (Simulation time: 01 hr 40 min 25 sec)
Heartbeat CPU 0 instructions: 240000001 cycles: 86693874 heartbeat IPC: 2.379 cumulative IPC: 2.561 (Simulation time: 01 hr 45 min 10 sec)
Heartbeat CPU 0 instructions: 250000003 cycles: 91260378 heartbeat IPC: 2.19 cumulative IPC: 2.539 (Simulation time: 01 hr 50 min 04 sec)
Heartbeat CPU 0 instructions: 260000000 cycles: 95061152 heartbeat IPC: 2.631 cumulative IPC: 2.544 (Simulation time: 01 hr 54 min 40 sec)
Heartbeat CPU 0 instructions: 270000003 cycles: 101858499 heartbeat IPC: 1.471 cumulative IPC: 2.462 (Simulation time: 02 hr 01 min 08 sec)
Heartbeat CPU 0 instructions: 280000000 cycles: 112793349 heartbeat IPC: 0.9145 cumulative IPC: 2.293 (Simulation time: 02 hr 10 min 23 sec)
Heartbeat CPU 0 instructions: 290000000 cycles: 122383349 heartbeat IPC: 1.043 cumulative IPC: 2.184 (Simulation time: 02 hr 18 min 51 sec)
Heartbeat CPU 0 instructions: 300000003 cycles: 129566146 heartbeat IPC: 1.392 cumulative IPC: 2.136 (Simulation time: 02 hr 25 min 54 sec)
Heartbeat CPU 0 instructions: 310000004 cycles: 140290661 heartbeat IPC: 0.9324 cumulative IPC: 2.035 (Simulation time: 02 hr 35 min 11 sec)
Heartbeat CPU 0 instructions: 320000004 cycles: 145256128 heartbeat IPC: 2.014 cumulative IPC: 2.034 (Simulation time: 02 hr 40 min 40 sec)
Heartbeat CPU 0 instructions: 330000000 cycles: 149331552 heartbeat IPC: 2.454 cumulative IPC: 2.046 (Simulation time: 02 hr 45 min 28 sec)
Heartbeat CPU 0 instructions: 340000001 cycles: 153635576 heartbeat IPC: 2.323 cumulative IPC: 2.055 (Simulation time: 02 hr 50 min 24 sec)
Heartbeat CPU 0 instructions: 350000004 cycles: 158061156 heartbeat IPC: 2.26 cumulative IPC: 2.061 (Simulation time: 02 hr 55 min 28 sec)
Heartbeat CPU 0 instructions: 360000003 cycles: 162183559 heartbeat IPC: 2.426 cumulative IPC: 2.071 (Simulation time: 03 hr 00 min 21 sec)
Heartbeat CPU 0 instructions: 370000001 cycles: 166217583 heartbeat IPC: 2.479 cumulative IPC: 2.082 (Simulation time: 03 hr 05 min 07 sec)
Heartbeat CPU 0 instructions: 380000004 cycles: 170113707 heartbeat IPC: 2.567 cumulative IPC: 2.094 (Simulation time: 03 hr 09 min 47 sec)
Heartbeat CPU 0 instructions: 390000002 cycles: 174207546 heartbeat IPC: 2.443 cumulative IPC: 2.103 (Simulation time: 03 hr 14 min 37 sec)
Heartbeat CPU 0 instructions: 400000000 cycles: 178574951 heartbeat IPC: 2.29 cumulative IPC: 2.107 (Simulation time: 03 hr 19 min 34 sec)
Heartbeat CPU 0 instructions: 410000000 cycles: 185963678 heartbeat IPC: 1.353 cumulative IPC: 2.075 (Simulation time: 03 hr 26 min 34 sec)
Heartbeat CPU 0 instructions: 420000003 cycles: 196835285 heartbeat IPC: 0.9198 cumulative IPC: 2.007 (Simulation time: 03 hr 35 min 48 sec)
Heartbeat CPU 0 instructions: 430000000 cycles: 204305328 heartbeat IPC: 1.339 cumulative IPC: 1.981 (Simulation time: 03 hr 43 min 05 sec)
Heartbeat CPU 0 instructions: 440000004 cycles: 210939938 heartbeat IPC: 1.507 cumulative IPC: 1.965 (Simulation time: 03 hr 49 min 49 sec)
Heartbeat CPU 0 instructions: 450000000 cycles: 217493184 heartbeat IPC: 1.526 cumulative IPC: 1.951 (Simulation time: 03 hr 56 min 26 sec)
Heartbeat CPU 0 instructions: 460000002 cycles: 228155796 heartbeat IPC: 0.9379 cumulative IPC: 1.901 (Simulation time: 04 hr 05 min 35 sec)
Heartbeat CPU 0 instructions: 470000003 cycles: 237404144 heartbeat IPC: 1.081 cumulative IPC: 1.867 (Simulation time: 04 hr 13 min 52 sec)
Heartbeat CPU 0 instructions: 480000003 cycles: 241693792 heartbeat IPC: 2.331 cumulative IPC: 1.876 (Simulation time: 04 hr 18 min 52 sec)
Heartbeat CPU 0 instructions: 490000001 cycles: 246398883 heartbeat IPC: 2.125 cumulative IPC: 1.881 (Simulation time: 04 hr 24 min 06 sec)
Heartbeat CPU 0 instructions: 500000002 cycles: 250862254 heartbeat IPC: 2.24 cumulative IPC: 1.888 (Simulation time: 04 hr 29 min 10 sec)
Heartbeat CPU 0 instructions: 510000000 cycles: 255120845 heartbeat IPC: 2.348 cumulative IPC: 1.896 (Simulation time: 04 hr 34 min 08 sec)
Heartbeat CPU 0 instructions: 520000000 cycles: 259578581 heartbeat IPC: 2.243 cumulative IPC: 1.902 (Simulation time: 04 hr 39 min 12 sec)
Heartbeat CPU 0 instructions: 530000001 cycles: 270559513 heartbeat IPC: 0.9107 cumulative IPC: 1.86 (Simulation time: 04 hr 48 min 26 sec)
Heartbeat CPU 0 instructions: 540000000 cycles: 281527596 heartbeat IPC: 0.9117 cumulative IPC: 1.821 (Simulation time: 04 hr 57 min 51 sec)
Heartbeat CPU 0 instructions: 550000004 cycles: 293904543 heartbeat IPC: 0.808 cumulative IPC: 1.777 (Simulation time: 05 hr 08 min 06 sec)
Heartbeat CPU 0 instructions: 560000004 cycles: 298157753 heartbeat IPC: 2.351 cumulative IPC: 1.785 (Simulation time: 05 hr 12 min 55 sec)
Heartbeat CPU 0 instructions: 570000001 cycles: 301286935 heartbeat IPC: 3.196 cumulative IPC: 1.801 (Simulation time: 05 hr 17 min 31 sec)
Heartbeat CPU 0 instructions: 580000003 cycles: 304829975 heartbeat IPC: 2.822 cumulative IPC: 1.813 (Simulation time: 05 hr 22 min 01 sec)
Heartbeat CPU 0 instructions: 590000002 cycles: 308457094 heartbeat IPC: 2.757 cumulative IPC: 1.825 (Simulation time: 05 hr 26 min 31 sec)
Heartbeat CPU 0 instructions: 600000003 cycles: 311524768 heartbeat IPC: 3.26 cumulative IPC: 1.839 (Simulation time: 05 hr 31 min 02 sec)
Heartbeat CPU 0 instructions: 610000001 cycles: 315035132 heartbeat IPC: 2.849 cumulative IPC: 1.851 (Simulation time: 05 hr 35 min 33 sec)
Heartbeat CPU 0 instructions: 620000000 cycles: 319051513 heartbeat IPC: 2.49 cumulative IPC: 1.859 (Simulation time: 05 hr 40 min 38 sec)
Heartbeat CPU 0 instructions: 630000002 cycles: 322414501 heartbeat IPC: 2.974 cumulative IPC: 1.871 (Simulation time: 05 hr 45 min 13 sec)
Heartbeat CPU 0 instructions: 640000004 cycles: 326420826 heartbeat IPC: 2.496 cumulative IPC: 1.879 (Simulation time: 05 hr 50 min 06 sec)
Heartbeat CPU 0 instructions: 650000001 cycles: 330240027 heartbeat IPC: 2.618 cumulative IPC: 1.888 (Simulation time: 05 hr 54 min 53 sec)
Simulation finished CPU 0 instructions: 600000001 cycles: 317739966 cumulative IPC: 1.888 (Simulation time: 05 hr 54 min 53 sec)
Simulation complete CPU 0 instructions: 600000001 cycles: 317739966 cumulative IPC: 1.888 (Simulation time: 05 hr 54 min 53 sec)

ChampSim completed all CPUs

=== Simulation ===
CPU 0 runs traces/400.perlbench-50B.champsimtrace.xz
Region of Interest Statistics

CPU 0 cumulative IPC: 1.888 instructions: 600000001 cycles: 317739966
CPU 0 Branch Prediction Accuracy: 96.2% MPKI: 7.839 Average ROB Occupancy at Mispredict: 43.18
Branch type MPKI
BRANCH_DIRECT_JUMP: 0.0176
BRANCH_INDIRECT: 0.38
BRANCH_CONDITIONAL: 6.99
BRANCH_DIRECT_CALL: 0.0067
BRANCH_INDIRECT_CALL: 0.431
BRANCH_RETURN: 0.0161

LLC TOTAL        ACCESS:     890043 HIT:     406578 MISS:     483465
LLC LOAD         ACCESS:     377539 HIT:     162111 MISS:     215428
LLC RFO          ACCESS:      32804 HIT:      12032 MISS:      20772
LLC PREFETCH     ACCESS:     377539 HIT:     147155 MISS:     230384
LLC WRITE        ACCESS:      83946 HIT:      80574 MISS:       3372
LLC TRANSLATION  ACCESS:      18215 HIT:       4706 MISS:      13509
LLC PREFETCH REQUESTED:     377539 ISSUED:     377539 USEFUL:      86045 USELESS:      88635
LLC AVERAGE MISS LATENCY: 557.8 cycles
cpu0_DTLB TOTAL        ACCESS:  146475524 HIT:  145173493 MISS:    1302031
cpu0_DTLB LOAD         ACCESS:  146475524 HIT:  145173493 MISS:    1302031
cpu0_DTLB RFO          ACCESS:          0 HIT:          0 MISS:          0
cpu0_DTLB PREFETCH     ACCESS:          0 HIT:          0 MISS:          0
cpu0_DTLB WRITE        ACCESS:          0 HIT:          0 MISS:          0
cpu0_DTLB TRANSLATION  ACCESS:          0 HIT:          0 MISS:          0
cpu0_DTLB PREFETCH REQUESTED:          0 ISSUED:          0 USEFUL:          0 USELESS:          0
cpu0_DTLB AVERAGE MISS LATENCY: 13.21 cycles
cpu0_ITLB TOTAL        ACCESS:    8986662 HIT:    8801925 MISS:     184737
cpu0_ITLB LOAD         ACCESS:    8986662 HIT:    8801925 MISS:     184737
cpu0_ITLB RFO          ACCESS:          0 HIT:          0 MISS:          0
cpu0_ITLB PREFETCH     ACCESS:          0 HIT:          0 MISS:          0
cpu0_ITLB WRITE        ACCESS:          0 HIT:          0 MISS:          0
cpu0_ITLB TRANSLATION  ACCESS:          0 HIT:          0 MISS:          0
cpu0_ITLB PREFETCH REQUESTED:          0 ISSUED:          0 USEFUL:          0 USELESS:          0
cpu0_ITLB AVERAGE MISS LATENCY: 3.912 cycles
cpu0_L1D TOTAL        ACCESS:  193306013 HIT:  190463917 MISS:    2842096
cpu0_L1D LOAD         ACCESS:  107459034 HIT:  105122391 MISS:    2336643
cpu0_L1D RFO          ACCESS:          0 HIT:          0 MISS:          0
cpu0_L1D PREFETCH     ACCESS:          0 HIT:          0 MISS:          0
cpu0_L1D WRITE        ACCESS:   85818443 HIT:   85339513 MISS:     478930
cpu0_L1D TRANSLATION  ACCESS:      28536 HIT:       2013 MISS:      26523
cpu0_L1D PREFETCH REQUESTED:          0 ISSUED:          0 USEFUL:          0 USELESS:          0
cpu0_L1D AVERAGE MISS LATENCY: 57.74 cycles
cpu0_L1I TOTAL        ACCESS:   10421236 HIT:    8658534 MISS:    1762702
cpu0_L1I LOAD         ACCESS:   10421236 HIT:    8658534 MISS:    1762702
cpu0_L1I RFO          ACCESS:          0 HIT:          0 MISS:          0
cpu0_L1I PREFETCH     ACCESS:          0 HIT:          0 MISS:          0
cpu0_L1I WRITE        ACCESS:          0 HIT:          0 MISS:          0
cpu0_L1I TRANSLATION  ACCESS:          0 HIT:          0 MISS:          0
cpu0_L1I PREFETCH REQUESTED:          0 ISSUED:          0 USEFUL:          0 USELESS:          0
cpu0_L1I AVERAGE MISS LATENCY: 10.38 cycles
cpu0_L2C TOTAL        ACCESS:    3232410 HIT:    2802943 MISS:     429467
cpu0_L2C LOAD         ACCESS:    2710080 HIT:    2332541 MISS:     377539
cpu0_L2C RFO          ACCESS:     133282 HIT:     100478 MISS:      32804
cpu0_L2C PREFETCH     ACCESS:          0 HIT:          0 MISS:          0
cpu0_L2C WRITE        ACCESS:     362595 HIT:     361686 MISS:        909
cpu0_L2C TRANSLATION  ACCESS:      26453 HIT:       8238 MISS:      18215
cpu0_L2C PREFETCH REQUESTED:          0 ISSUED:          0 USEFUL:          0 USELESS:          0
cpu0_L2C AVERAGE MISS LATENCY: 373.9 cycles
cpu0_STLB TOTAL        ACCESS:    1008347 HIT:     981651 MISS:      26696
cpu0_STLB LOAD         ACCESS:    1008347 HIT:     981651 MISS:      26696
cpu0_STLB RFO          ACCESS:          0 HIT:          0 MISS:          0
cpu0_STLB PREFETCH     ACCESS:          0 HIT:          0 MISS:          0
cpu0_STLB WRITE        ACCESS:          0 HIT:          0 MISS:          0
cpu0_STLB TRANSLATION  ACCESS:          0 HIT:          0 MISS:          0
cpu0_STLB PREFETCH REQUESTED:          0 ISSUED:          0 USEFUL:          0 USELESS:          0
cpu0_STLB AVERAGE MISS LATENCY: 429.2 cycles

DRAM Statistics

Channel 0 RQ ROW_BUFFER_HIT:      78798
  ROW_BUFFER_MISS:     332345
 AVG DBUS CONGESTED CYCLE: 3.873
WQ ROW_BUFFER_HIT: Channel 0 
  ROW_BUFFER_MISS:       6708
  FULL:      44488
