WARNING: physical memory size is smaller than virtual memory size.

*** ChampSim Multicore Out-of-Order Simulator ***
Warmup Instructions: 50000000
Simulation Instructions: 600000000
Number of CPUs: 1
Page size: 4096

CPU 0 Tage branch predictor
Off-chip DRAM Size: 4 GiB Channels: 1 Width: 64-bit Data Race: 3200 MT/s
Heartbeat CPU 0 instructions: 10000001 cycles: 2500318 heartbeat IPC: 3.999 cumulative IPC: 3.999 (Simulation time: 00 hr 04 min 40 sec)
Heartbeat CPU 0 instructions: 20000002 cycles: 5037105 heartbeat IPC: 3.942 cumulative IPC: 3.971 (Simulation time: 00 hr 09 min 33 sec)
Heartbeat CPU 0 instructions: 30000002 cycles: 7537105 heartbeat IPC: 4 cumulative IPC: 3.98 (Simulation time: 00 hr 14 min 07 sec)
Heartbeat CPU 0 instructions: 40000002 cycles: 10037105 heartbeat IPC: 4 cumulative IPC: 3.985 (Simulation time: 00 hr 18 min 36 sec)
Heartbeat CPU 0 instructions: 50000002 cycles: 12537105 heartbeat IPC: 4 cumulative IPC: 3.988 (Simulation time: 00 hr 23 min 04 sec)
Warmup finished CPU 0 instructions: 50000002 cycles: 12537106 cumulative IPC: 3.988 (Simulation time: 00 hr 23 min 04 sec)
Warmup complete CPU 0 instructions: 50000002 cycles: 12537106 cumulative IPC: 3.988 (Simulation time: 00 hr 23 min 04 sec)
Heartbeat CPU 0 instructions: 60000001 cycles: 15515947 heartbeat IPC: 3.357 cumulative IPC: 3.357 (Simulation time: 00 hr 28 min 26 sec)
Heartbeat CPU 0 instructions: 70000004 cycles: 18590917 heartbeat IPC: 3.252 cumulative IPC: 3.304 (Simulation time: 00 hr 33 min 39 sec)
Heartbeat CPU 0 instructions: 80000001 cycles: 21642463 heartbeat IPC: 3.277 cumulative IPC: 3.295 (Simulation time: 00 hr 38 min 53 sec)
Heartbeat CPU 0 instructions: 90000001 cycles: 24588729 heartbeat IPC: 3.394 cumulative IPC: 3.319 (Simulation time: 00 hr 43 min 56 sec)
Heartbeat CPU 0 instructions: 100000000 cycles: 27502901 heartbeat IPC: 3.432 cumulative IPC: 3.341 (Simulation time: 00 hr 49 min 10 sec)
Heartbeat CPU 0 instructions: 110000000 cycles: 30446343 heartbeat IPC: 3.397 cumulative IPC: 3.35 (Simulation time: 00 hr 54 min 27 sec)
Heartbeat CPU 0 instructions: 120000001 cycles: 33426884 heartbeat IPC: 3.355 cumulative IPC: 3.351 (Simulation time: 00 hr 59 min 28 sec)
Heartbeat CPU 0 instructions: 130000001 cycles: 36291325 heartbeat IPC: 3.491 cumulative IPC: 3.368 (Simulation time: 01 hr 04 min 33 sec)
Heartbeat CPU 0 instructions: 140000001 cycles: 39340826 heartbeat IPC: 3.279 cumulative IPC: 3.358 (Simulation time: 01 hr 09 min 37 sec)
Heartbeat CPU 0 instructions: 150000001 cycles: 42354023 heartbeat IPC: 3.319 cumulative IPC: 3.354 (Simulation time: 01 hr 14 min 41 sec)
Heartbeat CPU 0 instructions: 160000004 cycles: 45361593 heartbeat IPC: 3.325 cumulative IPC: 3.351 (Simulation time: 01 hr 19 min 45 sec)
Heartbeat CPU 0 instructions: 170000004 cycles: 53490992 heartbeat IPC: 1.23 cumulative IPC: 2.93 (Simulation time: 01 hr 28 min 23 sec)
Heartbeat CPU 0 instructions: 180000004 cycles: 62147965 heartbeat IPC: 1.155 cumulative IPC: 2.62 (Simulation time: 01 hr 37 min 28 sec)
Heartbeat CPU 0 instructions: 190000001 cycles: 70462733 heartbeat IPC: 1.203 cumulative IPC: 2.417 (Simulation time: 01 hr 46 min 33 sec)
Heartbeat CPU 0 instructions: 200000004 cycles: 73427026 heartbeat IPC: 3.373 cumulative IPC: 2.463 (Simulation time: 01 hr 51 min 32 sec)
Heartbeat CPU 0 instructions: 210000001 cycles: 76391043 heartbeat IPC: 3.374 cumulative IPC: 2.506 (Simulation time: 01 hr 56 min 38 sec)
Heartbeat CPU 0 instructions: 220000000 cycles: 79285971 heartbeat IPC: 3.454 cumulative IPC: 2.547 (Simulation time: 02 hr 01 min 35 sec)
Heartbeat CPU 0 instructions: 230000002 cycles: 82308715 heartbeat IPC: 3.308 cumulative IPC: 2.58 (Simulation time: 02 hr 06 min 40 sec)
Heartbeat CPU 0 instructions: 240000003 cycles: 85346942 heartbeat IPC: 3.291 cumulative IPC: 2.61 (Simulation time: 02 hr 11 min 45 sec)
Heartbeat CPU 0 instructions: 250000000 cycles: 88377870 heartbeat IPC: 3.299 cumulative IPC: 2.637 (Simulation time: 02 hr 16 min 54 sec)
Heartbeat CPU 0 instructions: 260000002 cycles: 91350369 heartbeat IPC: 3.364 cumulative IPC: 2.665 (Simulation time: 02 hr 21 min 56 sec)
Heartbeat CPU 0 instructions: 270000002 cycles: 94263223 heartbeat IPC: 3.433 cumulative IPC: 2.692 (Simulation time: 02 hr 26 min 54 sec)
Heartbeat CPU 0 instructions: 280000002 cycles: 97151857 heartbeat IPC: 3.462 cumulative IPC: 2.718 (Simulation time: 02 hr 31 min 54 sec)
Heartbeat CPU 0 instructions: 290000002 cycles: 100116321 heartbeat IPC: 3.373 cumulative IPC: 2.74 (Simulation time: 02 hr 36 min 57 sec)
Heartbeat CPU 0 instructions: 300000003 cycles: 103019725 heartbeat IPC: 3.444 cumulative IPC: 2.763 (Simulation time: 02 hr 42 min 04 sec)
Heartbeat CPU 0 instructions: 310000001 cycles: 106061576 heartbeat IPC: 3.287 cumulative IPC: 2.78 (Simulation time: 02 hr 47 min 10 sec)
Heartbeat CPU 0 instructions: 320000003 cycles: 109074175 heartbeat IPC: 3.319 cumulative IPC: 2.797 (Simulation time: 02 hr 52 min 13 sec)
Heartbeat CPU 0 instructions: 330000003 cycles: 112064661 heartbeat IPC: 3.344 cumulative IPC: 2.813 (Simulation time: 02 hr 57 min 17 sec)
Heartbeat CPU 0 instructions: 340000000 cycles: 120411062 heartbeat IPC: 1.198 cumulative IPC: 2.688 (Simulation time: 03 hr 06 min 02 sec)
Heartbeat CPU 0 instructions: 350000000 cycles: 129386293 heartbeat IPC: 1.114 cumulative IPC: 2.567 (Simulation time: 03 hr 15 min 27 sec)
Heartbeat CPU 0 instructions: 360000004 cycles: 137769891 heartbeat IPC: 1.193 cumulative IPC: 2.475 (Simulation time: 03 hr 24 min 19 sec)
Heartbeat CPU 0 instructions: 370000000 cycles: 140741775 heartbeat IPC: 3.365 cumulative IPC: 2.496 (Simulation time: 03 hr 29 min 20 sec)
Heartbeat CPU 0 instructions: 380000003 cycles: 143665136 heartbeat IPC: 3.421 cumulative IPC: 2.517 (Simulation time: 03 hr 34 min 21 sec)
Heartbeat CPU 0 instructions: 390000002 cycles: 146645972 heartbeat IPC: 3.355 cumulative IPC: 2.535 (Simulation time: 03 hr 39 min 22 sec)
Heartbeat CPU 0 instructions: 400000004 cycles: 149550336 heartbeat IPC: 3.443 cumulative IPC: 2.554 (Simulation time: 03 hr 44 min 16 sec)
Heartbeat CPU 0 instructions: 410000002 cycles: 152493523 heartbeat IPC: 3.398 cumulative IPC: 2.572 (Simulation time: 03 hr 49 min 15 sec)
Heartbeat CPU 0 instructions: 420000003 cycles: 155642482 heartbeat IPC: 3.176 cumulative IPC: 2.586 (Simulation time: 03 hr 54 min 20 sec)
Heartbeat CPU 0 instructions: 430000001 cycles: 158657614 heartbeat IPC: 3.317 cumulative IPC: 2.601 (Simulation time: 03 hr 59 min 24 sec)
Heartbeat CPU 0 instructions: 440000004 cycles: 161792761 heartbeat IPC: 3.19 cumulative IPC: 2.613 (Simulation time: 04 hr 04 min 32 sec)
Heartbeat CPU 0 instructions: 450000002 cycles: 164722395 heartbeat IPC: 3.413 cumulative IPC: 2.628 (Simulation time: 04 hr 09 min 31 sec)
Heartbeat CPU 0 instructions: 460000000 cycles: 167654969 heartbeat IPC: 3.41 cumulative IPC: 2.643 (Simulation time: 04 hr 14 min 30 sec)
Heartbeat CPU 0 instructions: 470000001 cycles: 170509856 heartbeat IPC: 3.503 cumulative IPC: 2.659 (Simulation time: 04 hr 19 min 29 sec)
Heartbeat CPU 0 instructions: 480000003 cycles: 173577401 heartbeat IPC: 3.26 cumulative IPC: 2.67 (Simulation time: 04 hr 24 min 28 sec)
Heartbeat CPU 0 instructions: 490000004 cycles: 176407375 heartbeat IPC: 3.534 cumulative IPC: 2.685 (Simulation time: 04 hr 29 min 21 sec)
Heartbeat CPU 0 instructions: 500000004 cycles: 179392311 heartbeat IPC: 3.35 cumulative IPC: 2.697 (Simulation time: 04 hr 34 min 18 sec)
Heartbeat CPU 0 instructions: 510000003 cycles: 182426769 heartbeat IPC: 3.295 cumulative IPC: 2.708 (Simulation time: 04 hr 39 min 20 sec)
Heartbeat CPU 0 instructions: 520000001 cycles: 185314874 heartbeat IPC: 3.462 cumulative IPC: 2.72 (Simulation time: 04 hr 44 min 25 sec)
Heartbeat CPU 0 instructions: 530000001 cycles: 188324273 heartbeat IPC: 3.323 cumulative IPC: 2.731 (Simulation time: 04 hr 49 min 27 sec)
Heartbeat CPU 0 instructions: 540000000 cycles: 191285856 heartbeat IPC: 3.377 cumulative IPC: 2.741 (Simulation time: 04 hr 54 min 28 sec)
Heartbeat CPU 0 instructions: 550000001 cycles: 194269281 heartbeat IPC: 3.352 cumulative IPC: 2.751 (Simulation time: 04 hr 59 min 29 sec)
Heartbeat CPU 0 instructions: 560000000 cycles: 197356156 heartbeat IPC: 3.24 cumulative IPC: 2.759 (Simulation time: 05 hr 04 min 38 sec)
Heartbeat CPU 0 instructions: 570000004 cycles: 202864570 heartbeat IPC: 1.815 cumulative IPC: 2.732 (Simulation time: 05 hr 11 min 26 sec)
Heartbeat CPU 0 instructions: 580000003 cycles: 212350862 heartbeat IPC: 1.054 cumulative IPC: 2.652 (Simulation time: 05 hr 21 min 10 sec)
Heartbeat CPU 0 instructions: 590000002 cycles: 223265840 heartbeat IPC: 0.9162 cumulative IPC: 2.563 (Simulation time: 05 hr 31 min 51 sec)
Heartbeat CPU 0 instructions: 600000004 cycles: 226345110 heartbeat IPC: 3.248 cumulative IPC: 2.572 (Simulation time: 05 hr 36 min 55 sec)
Heartbeat CPU 0 instructions: 610000002 cycles: 229314850 heartbeat IPC: 3.367 cumulative IPC: 2.583 (Simulation time: 05 hr 41 min 52 sec)
Heartbeat CPU 0 instructions: 620000001 cycles: 232092497 heartbeat IPC: 3.6 cumulative IPC: 2.596 (Simulation time: 05 hr 46 min 49 sec)
Heartbeat CPU 0 instructions: 630000002 cycles: 235066278 heartbeat IPC: 3.363 cumulative IPC: 2.606 (Simulation time: 05 hr 51 min 47 sec)
Heartbeat CPU 0 instructions: 640000004 cycles: 238015530 heartbeat IPC: 3.391 cumulative IPC: 2.617 (Simulation time: 05 hr 56 min 45 sec)
Heartbeat CPU 0 instructions: 650000000 cycles: 240767295 heartbeat IPC: 3.634 cumulative IPC: 2.629 (Simulation time: 06 hr 01 min 37 sec)
Simulation finished CPU 0 instructions: 600000001 cycles: 228230191 cumulative IPC: 2.629 (Simulation time: 06 hr 01 min 37 sec)
Simulation complete CPU 0 instructions: 600000001 cycles: 228230191 cumulative IPC: 2.629 (Simulation time: 06 hr 01 min 37 sec)

ChampSim completed all CPUs

=== Simulation ===
CPU 0 runs traces/400.perlbench-41B.champsimtrace.xz
Region of Interest Statistics

CPU 0 cumulative IPC: 2.629 instructions: 600000001 cycles: 228230191
CPU 0 Branch Prediction Accuracy: 99.19% MPKI: 1.684 Average ROB Occupancy at Mispredict: 102.1
Branch type MPKI
BRANCH_DIRECT_JUMP: 0.0123
BRANCH_INDIRECT: 0.323
BRANCH_CONDITIONAL: 1.14
BRANCH_DIRECT_CALL: 0.0043
BRANCH_INDIRECT_CALL: 0.2
BRANCH_RETURN: 0.00828

LLC TOTAL        ACCESS:     414457 HIT:     136005 MISS:     278452
LLC LOAD         ACCESS:     309583 HIT:      59558 MISS:     250025
LLC RFO          ACCESS:      25109 HIT:       8324 MISS:      16785
LLC PREFETCH     ACCESS:          0 HIT:          0 MISS:          0
LLC WRITE        ACCESS:      63934 HIT:      62687 MISS:       1247
LLC TRANSLATION  ACCESS:      15831 HIT:       5436 MISS:      10395
LLC PREFETCH REQUESTED:          0 ISSUED:          0 USEFUL:          0 USELESS:          0
LLC AVERAGE MISS LATENCY: 637 cycles
cpu0_DTLB TOTAL        ACCESS:  129739994 HIT:  129037535 MISS:     702459
cpu0_DTLB LOAD         ACCESS:  129739994 HIT:  129037535 MISS:     702459
cpu0_DTLB RFO          ACCESS:          0 HIT:          0 MISS:          0
cpu0_DTLB PREFETCH     ACCESS:          0 HIT:          0 MISS:          0
cpu0_DTLB WRITE        ACCESS:          0 HIT:          0 MISS:          0
cpu0_DTLB TRANSLATION  ACCESS:          0 HIT:          0 MISS:          0
cpu0_DTLB PREFETCH REQUESTED:          0 ISSUED:          0 USEFUL:          0 USELESS:          0
cpu0_DTLB AVERAGE MISS LATENCY: 16.13 cycles
cpu0_ITLB TOTAL        ACCESS:    4876870 HIT:    4814214 MISS:      62656
cpu0_ITLB LOAD         ACCESS:    4876870 HIT:    4814214 MISS:      62656
cpu0_ITLB RFO          ACCESS:          0 HIT:          0 MISS:          0
cpu0_ITLB PREFETCH     ACCESS:          0 HIT:          0 MISS:          0
cpu0_ITLB WRITE        ACCESS:          0 HIT:          0 MISS:          0
cpu0_ITLB TRANSLATION  ACCESS:          0 HIT:          0 MISS:          0
cpu0_ITLB PREFETCH REQUESTED:          0 ISSUED:          0 USEFUL:          0 USELESS:          0
cpu0_ITLB AVERAGE MISS LATENCY: 7.033 cycles
cpu0_L1D TOTAL        ACCESS:  174339049 HIT:  172930710 MISS:    1408339
cpu0_L1D LOAD         ACCESS:   91319115 HIT:   90231801 MISS:    1087314
cpu0_L1D RFO          ACCESS:          0 HIT:          0 MISS:          0
cpu0_L1D PREFETCH     ACCESS:          0 HIT:          0 MISS:          0
cpu0_L1D WRITE        ACCESS:   82995467 HIT:   82697305 MISS:     298162
cpu0_L1D TRANSLATION  ACCESS:      24467 HIT:       1604 MISS:      22863
cpu0_L1D PREFETCH REQUESTED:          0 ISSUED:          0 USEFUL:          0 USELESS:          0
cpu0_L1D AVERAGE MISS LATENCY: 121.4 cycles
cpu0_L1I TOTAL        ACCESS:    5655364 HIT:    4849216 MISS:     806148
cpu0_L1I LOAD         ACCESS:    5655364 HIT:    4849216 MISS:     806148
cpu0_L1I RFO          ACCESS:          0 HIT:          0 MISS:          0
cpu0_L1I PREFETCH     ACCESS:          0 HIT:          0 MISS:          0
cpu0_L1I WRITE        ACCESS:          0 HIT:          0 MISS:          0
cpu0_L1I TRANSLATION  ACCESS:          0 HIT:          0 MISS:          0
cpu0_L1I PREFETCH REQUESTED:          0 ISSUED:          0 USEFUL:          0 USELESS:          0
cpu0_L1I AVERAGE MISS LATENCY: 13.94 cycles
cpu0_L2C TOTAL        ACCESS:    1381606 HIT:    1030204 MISS:     351402
cpu0_L2C LOAD         ACCESS:    1124046 HIT:     814463 MISS:     309583
cpu0_L2C RFO          ACCESS:      64505 HIT:      39396 MISS:      25109
cpu0_L2C PREFETCH     ACCESS:          0 HIT:          0 MISS:          0
cpu0_L2C WRITE        ACCESS:     170267 HIT:     169388 MISS:        879
cpu0_L2C TRANSLATION  ACCESS:      22788 HIT:       6957 MISS:      15831
cpu0_L2C PREFETCH REQUESTED:          0 ISSUED:          0 USEFUL:          0 USELESS:          0
cpu0_L2C AVERAGE MISS LATENCY: 525.5 cycles
cpu0_STLB TOTAL        ACCESS:     509028 HIT:     486238 MISS:      22790
cpu0_STLB LOAD         ACCESS:     509028 HIT:     486238 MISS:      22790
cpu0_STLB RFO          ACCESS:          0 HIT:          0 MISS:          0
cpu0_STLB PREFETCH     ACCESS:          0 HIT:          0 MISS:          0
cpu0_STLB WRITE        ACCESS:          0 HIT:          0 MISS:          0
cpu0_STLB TRANSLATION  ACCESS:          0 HIT:          0 MISS:          0
cpu0_STLB PREFETCH REQUESTED:          0 ISSUED:          0 USEFUL:          0 USELESS:          0
cpu0_STLB AVERAGE MISS LATENCY: 394.4 cycles

DRAM Statistics

Channel 0 RQ ROW_BUFFER_HIT:      49056
  ROW_BUFFER_MISS:     228103
 AVG DBUS CONGESTED CYCLE: 3.844
WQ ROW_BUFFER_HIT: Channel 0 
  ROW_BUFFER_MISS:       4855
  FULL:      40247
