WARNING: physical memory size is smaller than virtual memory size.

*** ChampSim Multicore Out-of-Order Simulator ***
Warmup Instructions: 50000000
Simulation Instructions: 600000000
Number of CPUs: 1
Page size: 4096

Off-chip DRAM Size: 4 GiB Channels: 1 Width: 64-bit Data Race: 3200 MT/s
Heartbeat CPU 0 instructions: 10000000 cycles: 2500061 heartbeat IPC: 4 cumulative IPC: 4 (Simulation time: 00 hr 03 min 38 sec)
Heartbeat CPU 0 instructions: 20000000 cycles: 5000061 heartbeat IPC: 4 cumulative IPC: 4 (Simulation time: 00 hr 07 min 04 sec)
Heartbeat CPU 0 instructions: 30000000 cycles: 7500061 heartbeat IPC: 4 cumulative IPC: 4 (Simulation time: 00 hr 10 min 31 sec)
Heartbeat CPU 0 instructions: 40000000 cycles: 10000061 heartbeat IPC: 4 cumulative IPC: 4 (Simulation time: 00 hr 13 min 56 sec)
Heartbeat CPU 0 instructions: 50000000 cycles: 12500061 heartbeat IPC: 4 cumulative IPC: 4 (Simulation time: 00 hr 17 min 24 sec)
Warmup finished CPU 0 instructions: 50000000 cycles: 12500062 cumulative IPC: 4 (Simulation time: 00 hr 17 min 24 sec)
Warmup complete CPU 0 instructions: 50000000 cycles: 12500062 cumulative IPC: 4 (Simulation time: 00 hr 17 min 24 sec)
Heartbeat CPU 0 instructions: 60000002 cycles: 16910711 heartbeat IPC: 2.267 cumulative IPC: 2.267 (Simulation time: 00 hr 22 min 27 sec)
Heartbeat CPU 0 instructions: 70000003 cycles: 21896385 heartbeat IPC: 2.006 cumulative IPC: 2.128 (Simulation time: 00 hr 27 min 44 sec)
Heartbeat CPU 0 instructions: 80000001 cycles: 27245595 heartbeat IPC: 1.869 cumulative IPC: 2.035 (Simulation time: 00 hr 33 min 15 sec)
Heartbeat CPU 0 instructions: 90000000 cycles: 31544084 heartbeat IPC: 2.326 cumulative IPC: 2.1 (Simulation time: 00 hr 38 min 12 sec)
Heartbeat CPU 0 instructions: 100000003 cycles: 36403206 heartbeat IPC: 2.058 cumulative IPC: 2.092 (Simulation time: 00 hr 43 min 27 sec)
Heartbeat CPU 0 instructions: 110000002 cycles: 41280710 heartbeat IPC: 2.05 cumulative IPC: 2.085 (Simulation time: 00 hr 48 min 45 sec)
Heartbeat CPU 0 instructions: 120000001 cycles: 46277013 heartbeat IPC: 2.001 cumulative IPC: 2.072 (Simulation time: 00 hr 54 min 09 sec)
Heartbeat CPU 0 instructions: 130000003 cycles: 50847689 heartbeat IPC: 2.188 cumulative IPC: 2.086 (Simulation time: 00 hr 59 min 17 sec)
Heartbeat CPU 0 instructions: 140000002 cycles: 55740962 heartbeat IPC: 2.044 cumulative IPC: 2.081 (Simulation time: 01 hr 04 min 33 sec)
Heartbeat CPU 0 instructions: 150000001 cycles: 60412379 heartbeat IPC: 2.141 cumulative IPC: 2.087 (Simulation time: 01 hr 09 min 54 sec)
Heartbeat CPU 0 instructions: 160000000 cycles: 65052851 heartbeat IPC: 2.155 cumulative IPC: 2.093 (Simulation time: 01 hr 15 min 13 sec)
Heartbeat CPU 0 instructions: 170000000 cycles: 70389352 heartbeat IPC: 1.874 cumulative IPC: 2.073 (Simulation time: 01 hr 20 min 49 sec)
Heartbeat CPU 0 instructions: 180000001 cycles: 76110957 heartbeat IPC: 1.748 cumulative IPC: 2.044 (Simulation time: 01 hr 26 min 46 sec)
Heartbeat CPU 0 instructions: 190000002 cycles: 80587462 heartbeat IPC: 2.234 cumulative IPC: 2.056 (Simulation time: 01 hr 31 min 42 sec)
Heartbeat CPU 0 instructions: 200000002 cycles: 85496926 heartbeat IPC: 2.037 cumulative IPC: 2.055 (Simulation time: 01 hr 36 min 38 sec)
Heartbeat CPU 0 instructions: 210000000 cycles: 90502599 heartbeat IPC: 1.998 cumulative IPC: 2.051 (Simulation time: 01 hr 41 min 33 sec)
Heartbeat CPU 0 instructions: 220000001 cycles: 95428690 heartbeat IPC: 2.03 cumulative IPC: 2.05 (Simulation time: 01 hr 46 min 25 sec)
Heartbeat CPU 0 instructions: 230000002 cycles: 100677662 heartbeat IPC: 1.905 cumulative IPC: 2.041 (Simulation time: 01 hr 51 min 31 sec)
Heartbeat CPU 0 instructions: 240000001 cycles: 105644061 heartbeat IPC: 2.014 cumulative IPC: 2.04 (Simulation time: 01 hr 56 min 24 sec)
Heartbeat CPU 0 instructions: 250000003 cycles: 110831453 heartbeat IPC: 1.928 cumulative IPC: 2.034 (Simulation time: 02 hr 01 min 20 sec)
Heartbeat CPU 0 instructions: 260000001 cycles: 115693639 heartbeat IPC: 2.057 cumulative IPC: 2.035 (Simulation time: 02 hr 06 min 09 sec)
Heartbeat CPU 0 instructions: 270000000 cycles: 123450247 heartbeat IPC: 1.289 cumulative IPC: 1.983 (Simulation time: 02 hr 12 min 47 sec)
Heartbeat CPU 0 instructions: 280000000 cycles: 136131935 heartbeat IPC: 0.7885 cumulative IPC: 1.86 (Simulation time: 02 hr 22 min 25 sec)
Heartbeat CPU 0 instructions: 290000001 cycles: 148409989 heartbeat IPC: 0.8145 cumulative IPC: 1.766 (Simulation time: 02 hr 31 min 50 sec)
Heartbeat CPU 0 instructions: 300000003 cycles: 156476538 heartbeat IPC: 1.24 cumulative IPC: 1.736 (Simulation time: 02 hr 39 min 00 sec)
Heartbeat CPU 0 instructions: 310000004 cycles: 168896231 heartbeat IPC: 0.8052 cumulative IPC: 1.662 (Simulation time: 02 hr 48 min 39 sec)
Heartbeat CPU 0 instructions: 320000004 cycles: 175004347 heartbeat IPC: 1.637 cumulative IPC: 1.661 (Simulation time: 02 hr 54 min 24 sec)
Heartbeat CPU 0 instructions: 330000000 cycles: 180292358 heartbeat IPC: 1.891 cumulative IPC: 1.669 (Simulation time: 02 hr 59 min 31 sec)
Heartbeat CPU 0 instructions: 340000001 cycles: 185266939 heartbeat IPC: 2.01 cumulative IPC: 1.679 (Simulation time: 03 hr 04 min 32 sec)
Heartbeat CPU 0 instructions: 350000000 cycles: 190233173 heartbeat IPC: 2.014 cumulative IPC: 1.688 (Simulation time: 03 hr 09 min 32 sec)
Heartbeat CPU 0 instructions: 360000003 cycles: 194936193 heartbeat IPC: 2.126 cumulative IPC: 1.699 (Simulation time: 03 hr 14 min 26 sec)
Heartbeat CPU 0 instructions: 370000001 cycles: 199611559 heartbeat IPC: 2.139 cumulative IPC: 1.71 (Simulation time: 03 hr 19 min 13 sec)
Heartbeat CPU 0 instructions: 380000004 cycles: 204585152 heartbeat IPC: 2.011 cumulative IPC: 1.718 (Simulation time: 03 hr 24 min 10 sec)
Heartbeat CPU 0 instructions: 390000002 cycles: 209626632 heartbeat IPC: 1.984 cumulative IPC: 1.725 (Simulation time: 03 hr 29 min 09 sec)
Heartbeat CPU 0 instructions: 400000000 cycles: 214640631 heartbeat IPC: 1.994 cumulative IPC: 1.731 (Simulation time: 03 hr 34 min 11 sec)
Heartbeat CPU 0 instructions: 410000000 cycles: 222347391 heartbeat IPC: 1.298 cumulative IPC: 1.716 (Simulation time: 03 hr 40 min 52 sec)
Heartbeat CPU 0 instructions: 420000001 cycles: 234668152 heartbeat IPC: 0.8116 cumulative IPC: 1.665 (Simulation time: 03 hr 50 min 21 sec)
Heartbeat CPU 0 instructions: 430000000 cycles: 242867046 heartbeat IPC: 1.22 cumulative IPC: 1.65 (Simulation time: 03 hr 57 min 38 sec)
Heartbeat CPU 0 instructions: 440000002 cycles: 251754942 heartbeat IPC: 1.125 cumulative IPC: 1.63 (Simulation time: 04 hr 05 min 13 sec)
Heartbeat CPU 0 instructions: 450000000 cycles: 259827107 heartbeat IPC: 1.239 cumulative IPC: 1.617 (Simulation time: 04 hr 12 min 17 sec)
Heartbeat CPU 0 instructions: 460000002 cycles: 274303959 heartbeat IPC: 0.6908 cumulative IPC: 1.566 (Simulation time: 04 hr 23 min 17 sec)
Heartbeat CPU 0 instructions: 470000000 cycles: 285647394 heartbeat IPC: 0.8816 cumulative IPC: 1.538 (Simulation time: 04 hr 32 min 13 sec)
Heartbeat CPU 0 instructions: 480000000 cycles: 291200194 heartbeat IPC: 1.801 cumulative IPC: 1.543 (Simulation time: 04 hr 37 min 33 sec)
Heartbeat CPU 0 instructions: 490000001 cycles: 296149447 heartbeat IPC: 2.021 cumulative IPC: 1.551 (Simulation time: 04 hr 42 min 29 sec)
Heartbeat CPU 0 instructions: 500000002 cycles: 301100270 heartbeat IPC: 2.02 cumulative IPC: 1.559 (Simulation time: 04 hr 47 min 26 sec)
Heartbeat CPU 0 instructions: 510000000 cycles: 306003823 heartbeat IPC: 2.039 cumulative IPC: 1.567 (Simulation time: 04 hr 52 min 18 sec)
Heartbeat CPU 0 instructions: 520000000 cycles: 310993967 heartbeat IPC: 2.004 cumulative IPC: 1.575 (Simulation time: 04 hr 57 min 27 sec)
Heartbeat CPU 0 instructions: 530000001 cycles: 322544762 heartbeat IPC: 0.8657 cumulative IPC: 1.548 (Simulation time: 05 hr 06 min 32 sec)
Heartbeat CPU 0 instructions: 540000000 cycles: 335602534 heartbeat IPC: 0.7658 cumulative IPC: 1.517 (Simulation time: 05 hr 16 min 57 sec)
Heartbeat CPU 0 instructions: 550000002 cycles: 351180850 heartbeat IPC: 0.6419 cumulative IPC: 1.476 (Simulation time: 05 hr 28 min 49 sec)
Heartbeat CPU 0 instructions: 560000004 cycles: 356446395 heartbeat IPC: 1.899 cumulative IPC: 1.483 (Simulation time: 05 hr 34 min 13 sec)
Heartbeat CPU 0 instructions: 570000001 cycles: 360863479 heartbeat IPC: 2.264 cumulative IPC: 1.493 (Simulation time: 05 hr 38 min 59 sec)
Heartbeat CPU 0 instructions: 580000003 cycles: 365108061 heartbeat IPC: 2.356 cumulative IPC: 1.503 (Simulation time: 05 hr 43 min 29 sec)
Heartbeat CPU 0 instructions: 590000001 cycles: 370014007 heartbeat IPC: 2.038 cumulative IPC: 1.51 (Simulation time: 05 hr 48 min 09 sec)
Heartbeat CPU 0 instructions: 600000003 cycles: 374657126 heartbeat IPC: 2.154 cumulative IPC: 1.519 (Simulation time: 05 hr 52 min 21 sec)
Heartbeat CPU 0 instructions: 610000001 cycles: 379518344 heartbeat IPC: 2.057 cumulative IPC: 1.526 (Simulation time: 05 hr 56 min 27 sec)
Heartbeat CPU 0 instructions: 620000000 cycles: 384583641 heartbeat IPC: 1.974 cumulative IPC: 1.532 (Simulation time: 06 hr 00 min 30 sec)
Heartbeat CPU 0 instructions: 630000002 cycles: 388832428 heartbeat IPC: 2.354 cumulative IPC: 1.541 (Simulation time: 06 hr 04 min 04 sec)
Heartbeat CPU 0 instructions: 640000004 cycles: 394140667 heartbeat IPC: 1.884 cumulative IPC: 1.546 (Simulation time: 06 hr 07 min 53 sec)
Heartbeat CPU 0 instructions: 650000001 cycles: 398894766 heartbeat IPC: 2.103 cumulative IPC: 1.553 (Simulation time: 06 hr 11 min 14 sec)
Simulation finished CPU 0 instructions: 600000001 cycles: 386394705 cumulative IPC: 1.553 (Simulation time: 06 hr 11 min 14 sec)
Simulation complete CPU 0 instructions: 600000001 cycles: 386394705 cumulative IPC: 1.553 (Simulation time: 06 hr 11 min 14 sec)

ChampSim completed all CPUs

=== Simulation ===
CPU 0 runs traces/400.perlbench-50B.champsimtrace.xz
Region of Interest Statistics

CPU 0 cumulative IPC: 1.553 instructions: 600000001 cycles: 386394705
CPU 0 Branch Prediction Accuracy: 93.83% MPKI: 12.71 Average ROB Occupancy at Mispredict: 29.53
Branch type MPKI
BRANCH_DIRECT_JUMP: 0.0176
BRANCH_INDIRECT: 0.38
BRANCH_CONDITIONAL: 11.9
BRANCH_DIRECT_CALL: 0.0067
BRANCH_INDIRECT_CALL: 0.431
BRANCH_RETURN: 0.0161

LLC TOTAL        ACCESS:     512803 HIT:     128647 MISS:     384156
LLC LOAD         ACCESS:     377498 HIT:      95246 MISS:     282252
LLC RFO          ACCESS:      32787 HIT:       7572 MISS:      25215
LLC PREFETCH     ACCESS:          0 HIT:          0 MISS:          0
LLC WRITE        ACCESS:      84409 HIT:      24352 MISS:      60057
LLC TRANSLATION  ACCESS:      18109 HIT:       1477 MISS:      16632
LLC PREFETCH REQUESTED:          0 ISSUED:          0 USEFUL:          0 USELESS:          0
LLC AVERAGE MISS LATENCY: 483.6 cycles
cpu0_DTLB TOTAL        ACCESS:  156723625 HIT:  155421722 MISS:    1301903
cpu0_DTLB LOAD         ACCESS:  156723625 HIT:  155421722 MISS:    1301903
cpu0_DTLB RFO          ACCESS:          0 HIT:          0 MISS:          0
cpu0_DTLB PREFETCH     ACCESS:          0 HIT:          0 MISS:          0
cpu0_DTLB WRITE        ACCESS:          0 HIT:          0 MISS:          0
cpu0_DTLB TRANSLATION  ACCESS:          0 HIT:          0 MISS:          0
cpu0_DTLB PREFETCH REQUESTED:          0 ISSUED:          0 USEFUL:          0 USELESS:          0
cpu0_DTLB AVERAGE MISS LATENCY: 14.5 cycles
cpu0_ITLB TOTAL        ACCESS:    8933218 HIT:    8734381 MISS:     198837
cpu0_ITLB LOAD         ACCESS:    8933218 HIT:    8734381 MISS:     198837
cpu0_ITLB RFO          ACCESS:          0 HIT:          0 MISS:          0
cpu0_ITLB PREFETCH     ACCESS:          0 HIT:          0 MISS:          0
cpu0_ITLB WRITE        ACCESS:          0 HIT:          0 MISS:          0
cpu0_ITLB TRANSLATION  ACCESS:          0 HIT:          0 MISS:          0
cpu0_ITLB PREFETCH REQUESTED:          0 ISSUED:          0 USEFUL:          0 USELESS:          0
cpu0_ITLB AVERAGE MISS LATENCY: 3.714 cycles
cpu0_L1D TOTAL        ACCESS:  203591146 HIT:  200735734 MISS:    2855412
cpu0_L1D LOAD         ACCESS:  117915205 HIT:  115570525 MISS:    2344680
cpu0_L1D RFO          ACCESS:          0 HIT:          0 MISS:          0
cpu0_L1D PREFETCH     ACCESS:          0 HIT:          0 MISS:          0
cpu0_L1D WRITE        ACCESS:   85647401 HIT:   85163220 MISS:     484181
cpu0_L1D TRANSLATION  ACCESS:      28540 HIT:       1989 MISS:      26551
cpu0_L1D PREFETCH REQUESTED:          0 ISSUED:          0 USEFUL:          0 USELESS:          0
cpu0_L1D AVERAGE MISS LATENCY: 66.27 cycles
cpu0_L1I TOTAL        ACCESS:   10371901 HIT:    8572747 MISS:    1799154
cpu0_L1I LOAD         ACCESS:   10371901 HIT:    8572747 MISS:    1799154
cpu0_L1I RFO          ACCESS:          0 HIT:          0 MISS:          0
cpu0_L1I PREFETCH     ACCESS:          0 HIT:          0 MISS:          0
cpu0_L1I WRITE        ACCESS:          0 HIT:          0 MISS:          0
cpu0_L1I TRANSLATION  ACCESS:          0 HIT:          0 MISS:          0
cpu0_L1I PREFETCH REQUESTED:          0 ISSUED:          0 USEFUL:          0 USELESS:          0
cpu0_L1I AVERAGE MISS LATENCY: 14.99 cycles
cpu0_L2C TOTAL        ACCESS:    3235408 HIT:    2806068 MISS:     429340
cpu0_L2C LOAD         ACCESS:    2711746 HIT:    2334248 MISS:     377498
cpu0_L2C RFO          ACCESS:     133704 HIT:     100917 MISS:      32787
cpu0_L2C PREFETCH     ACCESS:          0 HIT:          0 MISS:          0
cpu0_L2C WRITE        ACCESS:     363490 HIT:     362544 MISS:        946
cpu0_L2C TRANSLATION  ACCESS:      26468 HIT:       8359 MISS:      18109
cpu0_L2C PREFETCH REQUESTED:          0 ISSUED:          0 USEFUL:          0 USELESS:          0
cpu0_L2C AVERAGE MISS LATENCY: 453.4 cycles
cpu0_STLB TOTAL        ACCESS:    1009348 HIT:     982657 MISS:      26691
cpu0_STLB LOAD         ACCESS:    1009348 HIT:     982657 MISS:      26691
cpu0_STLB RFO          ACCESS:          0 HIT:          0 MISS:          0
cpu0_STLB PREFETCH     ACCESS:          0 HIT:          0 MISS:          0
cpu0_STLB WRITE        ACCESS:          0 HIT:          0 MISS:          0
cpu0_STLB TRANSLATION  ACCESS:          0 HIT:          0 MISS:          0
cpu0_STLB PREFETCH REQUESTED:          0 ISSUED:          0 USEFUL:          0 USELESS:          0
cpu0_STLB AVERAGE MISS LATENCY: 494.8 cycles

DRAM Statistics

Channel 0 RQ ROW_BUFFER_HIT:      45360
  ROW_BUFFER_MISS:     278498
 AVG DBUS CONGESTED CYCLE: 3.837
WQ ROW_BUFFER_HIT: Channel 0 
  ROW_BUFFER_MISS:       9571
  FULL:      52382
