WARNING: physical memory size is smaller than virtual memory size.

*** ChampSim Multicore Out-of-Order Simulator ***
Warmup Instructions: 50000000
Simulation Instructions: 600000000
Number of CPUs: 1
Page size: 4096

Off-chip DRAM Size: 4 GiB Channels: 1 Width: 64-bit Data Race: 3200 MT/s
Heartbeat CPU 0 instructions: 10000000 cycles: 2500061 heartbeat IPC: 4 cumulative IPC: 4 (Simulation time: 00 hr 03 min 26 sec)
Heartbeat CPU 0 instructions: 20000000 cycles: 5000061 heartbeat IPC: 4 cumulative IPC: 4 (Simulation time: 00 hr 06 min 50 sec)
Heartbeat CPU 0 instructions: 30000000 cycles: 7500061 heartbeat IPC: 4 cumulative IPC: 4 (Simulation time: 00 hr 10 min 12 sec)
Heartbeat CPU 0 instructions: 40000000 cycles: 10000061 heartbeat IPC: 4 cumulative IPC: 4 (Simulation time: 00 hr 13 min 36 sec)
Heartbeat CPU 0 instructions: 50000000 cycles: 12500061 heartbeat IPC: 4 cumulative IPC: 4 (Simulation time: 00 hr 17 min 04 sec)
Warmup finished CPU 0 instructions: 50000000 cycles: 12500062 cumulative IPC: 4 (Simulation time: 00 hr 17 min 04 sec)
Warmup complete CPU 0 instructions: 50000000 cycles: 12500062 cumulative IPC: 4 (Simulation time: 00 hr 17 min 04 sec)
Heartbeat CPU 0 instructions: 60000002 cycles: 16896553 heartbeat IPC: 2.275 cumulative IPC: 2.275 (Simulation time: 00 hr 21 min 59 sec)
Heartbeat CPU 0 instructions: 70000003 cycles: 21873166 heartbeat IPC: 2.009 cumulative IPC: 2.134 (Simulation time: 00 hr 27 min 11 sec)
Heartbeat CPU 0 instructions: 80000001 cycles: 27215142 heartbeat IPC: 1.872 cumulative IPC: 2.039 (Simulation time: 00 hr 32 min 50 sec)
Heartbeat CPU 0 instructions: 90000000 cycles: 31509834 heartbeat IPC: 2.328 cumulative IPC: 2.104 (Simulation time: 00 hr 37 min 43 sec)
Heartbeat CPU 0 instructions: 100000003 cycles: 36357541 heartbeat IPC: 2.063 cumulative IPC: 2.096 (Simulation time: 00 hr 42 min 51 sec)
Heartbeat CPU 0 instructions: 110000002 cycles: 41219449 heartbeat IPC: 2.057 cumulative IPC: 2.089 (Simulation time: 00 hr 48 min 02 sec)
Heartbeat CPU 0 instructions: 120000001 cycles: 46211655 heartbeat IPC: 2.003 cumulative IPC: 2.076 (Simulation time: 00 hr 53 min 18 sec)
Heartbeat CPU 0 instructions: 130000003 cycles: 50769935 heartbeat IPC: 2.194 cumulative IPC: 2.09 (Simulation time: 00 hr 58 min 17 sec)
Heartbeat CPU 0 instructions: 140000002 cycles: 55652323 heartbeat IPC: 2.048 cumulative IPC: 2.086 (Simulation time: 01 hr 03 min 26 sec)
Heartbeat CPU 0 instructions: 150000001 cycles: 60310582 heartbeat IPC: 2.147 cumulative IPC: 2.092 (Simulation time: 01 hr 08 min 26 sec)
Heartbeat CPU 0 instructions: 160000000 cycles: 64939153 heartbeat IPC: 2.16 cumulative IPC: 2.098 (Simulation time: 01 hr 13 min 31 sec)
Heartbeat CPU 0 instructions: 170000000 cycles: 70263719 heartbeat IPC: 1.878 cumulative IPC: 2.077 (Simulation time: 01 hr 18 min 56 sec)
Heartbeat CPU 0 instructions: 180000001 cycles: 75977804 heartbeat IPC: 1.75 cumulative IPC: 2.048 (Simulation time: 01 hr 24 min 48 sec)
Heartbeat CPU 0 instructions: 190000002 cycles: 80439194 heartbeat IPC: 2.241 cumulative IPC: 2.061 (Simulation time: 01 hr 29 min 50 sec)
Heartbeat CPU 0 instructions: 200000002 cycles: 85328964 heartbeat IPC: 2.045 cumulative IPC: 2.06 (Simulation time: 01 hr 34 min 58 sec)
Heartbeat CPU 0 instructions: 210000000 cycles: 90326859 heartbeat IPC: 2.001 cumulative IPC: 2.056 (Simulation time: 01 hr 40 min 15 sec)
Heartbeat CPU 0 instructions: 220000001 cycles: 95248772 heartbeat IPC: 2.032 cumulative IPC: 2.054 (Simulation time: 01 hr 45 min 26 sec)
Heartbeat CPU 0 instructions: 230000002 cycles: 100487992 heartbeat IPC: 1.909 cumulative IPC: 2.046 (Simulation time: 01 hr 50 min 48 sec)
Heartbeat CPU 0 instructions: 240000001 cycles: 105444730 heartbeat IPC: 2.017 cumulative IPC: 2.044 (Simulation time: 01 hr 56 min 13 sec)
Heartbeat CPU 0 instructions: 250000003 cycles: 110617476 heartbeat IPC: 1.933 cumulative IPC: 2.038 (Simulation time: 02 hr 01 min 29 sec)
Heartbeat CPU 0 instructions: 260000001 cycles: 115480810 heartbeat IPC: 2.056 cumulative IPC: 2.039 (Simulation time: 02 hr 06 min 43 sec)
Heartbeat CPU 0 instructions: 270000000 cycles: 122955257 heartbeat IPC: 1.338 cumulative IPC: 1.992 (Simulation time: 02 hr 13 min 36 sec)
Heartbeat CPU 0 instructions: 280000000 cycles: 135041404 heartbeat IPC: 0.8274 cumulative IPC: 1.877 (Simulation time: 02 hr 23 min 37 sec)
Heartbeat CPU 0 instructions: 290000001 cycles: 146215897 heartbeat IPC: 0.8949 cumulative IPC: 1.795 (Simulation time: 02 hr 33 min 08 sec)
Heartbeat CPU 0 instructions: 300000003 cycles: 153927409 heartbeat IPC: 1.297 cumulative IPC: 1.768 (Simulation time: 02 hr 40 min 37 sec)
Heartbeat CPU 0 instructions: 310000004 cycles: 165452186 heartbeat IPC: 0.8677 cumulative IPC: 1.7 (Simulation time: 02 hr 50 min 37 sec)
Heartbeat CPU 0 instructions: 320000004 cycles: 171285449 heartbeat IPC: 1.714 cumulative IPC: 1.7 (Simulation time: 02 hr 56 min 43 sec)
Heartbeat CPU 0 instructions: 330000000 cycles: 176569799 heartbeat IPC: 1.892 cumulative IPC: 1.707 (Simulation time: 03 hr 02 min 14 sec)
Heartbeat CPU 0 instructions: 340000001 cycles: 181670691 heartbeat IPC: 1.96 cumulative IPC: 1.714 (Simulation time: 03 hr 07 min 37 sec)
Heartbeat CPU 0 instructions: 350000000 cycles: 186967566 heartbeat IPC: 1.888 cumulative IPC: 1.72 (Simulation time: 03 hr 13 min 10 sec)
Heartbeat CPU 0 instructions: 360000003 cycles: 192038279 heartbeat IPC: 1.972 cumulative IPC: 1.727 (Simulation time: 03 hr 18 min 32 sec)
Heartbeat CPU 0 instructions: 370000001 cycles: 197012668 heartbeat IPC: 2.01 cumulative IPC: 1.734 (Simulation time: 03 hr 23 min 52 sec)
Heartbeat CPU 0 instructions: 380000004 cycles: 202275766 heartbeat IPC: 1.9 cumulative IPC: 1.739 (Simulation time: 03 hr 29 min 23 sec)
Heartbeat CPU 0 instructions: 390000002 cycles: 207643092 heartbeat IPC: 1.863 cumulative IPC: 1.742 (Simulation time: 03 hr 34 min 59 sec)
Heartbeat CPU 0 instructions: 400000000 cycles: 213028370 heartbeat IPC: 1.857 cumulative IPC: 1.745 (Simulation time: 03 hr 40 min 47 sec)
Heartbeat CPU 0 instructions: 410000000 cycles: 220960722 heartbeat IPC: 1.261 cumulative IPC: 1.727 (Simulation time: 03 hr 48 min 18 sec)
Heartbeat CPU 0 instructions: 420000001 cycles: 232051453 heartbeat IPC: 0.9017 cumulative IPC: 1.685 (Simulation time: 03 hr 57 min 49 sec)
Heartbeat CPU 0 instructions: 430000000 cycles: 239565052 heartbeat IPC: 1.331 cumulative IPC: 1.674 (Simulation time: 04 hr 05 min 12 sec)
Heartbeat CPU 0 instructions: 440000002 cycles: 247644719 heartbeat IPC: 1.238 cumulative IPC: 1.659 (Simulation time: 04 hr 12 min 47 sec)
Heartbeat CPU 0 instructions: 450000000 cycles: 254984681 heartbeat IPC: 1.362 cumulative IPC: 1.65 (Simulation time: 04 hr 19 min 52 sec)
Heartbeat CPU 0 instructions: 460000002 cycles: 267322043 heartbeat IPC: 0.8105 cumulative IPC: 1.609 (Simulation time: 04 hr 30 min 24 sec)
Heartbeat CPU 0 instructions: 470000000 cycles: 277666132 heartbeat IPC: 0.9667 cumulative IPC: 1.584 (Simulation time: 04 hr 39 min 26 sec)
Heartbeat CPU 0 instructions: 480000000 cycles: 283147504 heartbeat IPC: 1.824 cumulative IPC: 1.589 (Simulation time: 04 hr 45 min 22 sec)
Heartbeat CPU 0 instructions: 490000001 cycles: 288605721 heartbeat IPC: 1.832 cumulative IPC: 1.594 (Simulation time: 04 hr 51 min 03 sec)
Heartbeat CPU 0 instructions: 500000002 cycles: 294071063 heartbeat IPC: 1.83 cumulative IPC: 1.598 (Simulation time: 04 hr 56 min 47 sec)
Heartbeat CPU 0 instructions: 510000000 cycles: 299566517 heartbeat IPC: 1.82 cumulative IPC: 1.602 (Simulation time: 05 hr 02 min 33 sec)
Heartbeat CPU 0 instructions: 520000000 cycles: 305127444 heartbeat IPC: 1.798 cumulative IPC: 1.606 (Simulation time: 05 hr 08 min 15 sec)
Heartbeat CPU 0 instructions: 530000001 cycles: 316194808 heartbeat IPC: 0.9036 cumulative IPC: 1.581 (Simulation time: 05 hr 17 min 43 sec)
Heartbeat CPU 0 instructions: 540000000 cycles: 327377123 heartbeat IPC: 0.8943 cumulative IPC: 1.556 (Simulation time: 05 hr 27 min 23 sec)
Heartbeat CPU 0 instructions: 550000002 cycles: 340713932 heartbeat IPC: 0.7498 cumulative IPC: 1.523 (Simulation time: 05 hr 38 min 15 sec)
Heartbeat CPU 0 instructions: 560000004 cycles: 345790079 heartbeat IPC: 1.97 cumulative IPC: 1.53 (Simulation time: 05 hr 43 min 40 sec)
Heartbeat CPU 0 instructions: 570000001 cycles: 350200389 heartbeat IPC: 2.267 cumulative IPC: 1.54 (Simulation time: 05 hr 48 min 41 sec)
Heartbeat CPU 0 instructions: 580000003 cycles: 354433585 heartbeat IPC: 2.362 cumulative IPC: 1.55 (Simulation time: 05 hr 53 min 33 sec)
Heartbeat CPU 0 instructions: 590000001 cycles: 359334020 heartbeat IPC: 2.041 cumulative IPC: 1.557 (Simulation time: 05 hr 58 min 52 sec)
Heartbeat CPU 0 instructions: 600000003 cycles: 363975149 heartbeat IPC: 2.155 cumulative IPC: 1.565 (Simulation time: 06 hr 04 min 02 sec)
Heartbeat CPU 0 instructions: 610000001 cycles: 368833790 heartbeat IPC: 2.058 cumulative IPC: 1.572 (Simulation time: 06 hr 09 min 18 sec)
Heartbeat CPU 0 instructions: 620000000 cycles: 373897978 heartbeat IPC: 1.975 cumulative IPC: 1.577 (Simulation time: 06 hr 14 min 42 sec)
Heartbeat CPU 0 instructions: 630000002 cycles: 378140642 heartbeat IPC: 2.357 cumulative IPC: 1.586 (Simulation time: 06 hr 19 min 33 sec)
Heartbeat CPU 0 instructions: 640000004 cycles: 383457311 heartbeat IPC: 1.881 cumulative IPC: 1.59 (Simulation time: 06 hr 25 min 03 sec)
Heartbeat CPU 0 instructions: 650000001 cycles: 388215626 heartbeat IPC: 2.102 cumulative IPC: 1.597 (Simulation time: 06 hr 30 min 15 sec)
Simulation finished CPU 0 instructions: 600000001 cycles: 375715565 cumulative IPC: 1.597 (Simulation time: 06 hr 30 min 15 sec)
Simulation complete CPU 0 instructions: 600000001 cycles: 375715565 cumulative IPC: 1.597 (Simulation time: 06 hr 30 min 15 sec)

ChampSim completed all CPUs

=== Simulation ===
CPU 0 runs traces/400.perlbench-50B.champsimtrace.xz
Region of Interest Statistics

CPU 0 cumulative IPC: 1.597 instructions: 600000001 cycles: 375715565
CPU 0 Branch Prediction Accuracy: 93.83% MPKI: 12.71 Average ROB Occupancy at Mispredict: 29.34
Branch type MPKI
BRANCH_DIRECT_JUMP: 0.0176
BRANCH_INDIRECT: 0.38
BRANCH_CONDITIONAL: 11.9
BRANCH_DIRECT_CALL: 0.0067
BRANCH_INDIRECT_CALL: 0.431
BRANCH_RETURN: 0.0161

LLC TOTAL        ACCESS:     888170 HIT:     334097 MISS:     554073
LLC LOAD         ACCESS:     376655 HIT:     151122 MISS:     225533
LLC RFO          ACCESS:      32688 HIT:       9305 MISS:      23383
LLC PREFETCH     ACCESS:     376655 HIT:     140740 MISS:     235915
LLC WRITE        ACCESS:      84074 HIT:      32272 MISS:      51802
LLC TRANSLATION  ACCESS:      18098 HIT:        658 MISS:      17440
LLC PREFETCH REQUESTED:     376655 ISSUED:     376655 USEFUL:      53781 USELESS:     124585
LLC AVERAGE MISS LATENCY: 505.9 cycles
cpu0_DTLB TOTAL        ACCESS:  156738163 HIT:  155437436 MISS:    1300727
cpu0_DTLB LOAD         ACCESS:  156738163 HIT:  155437436 MISS:    1300727
cpu0_DTLB RFO          ACCESS:          0 HIT:          0 MISS:          0
cpu0_DTLB PREFETCH     ACCESS:          0 HIT:          0 MISS:          0
cpu0_DTLB WRITE        ACCESS:          0 HIT:          0 MISS:          0
cpu0_DTLB TRANSLATION  ACCESS:          0 HIT:          0 MISS:          0
cpu0_DTLB PREFETCH REQUESTED:          0 ISSUED:          0 USEFUL:          0 USELESS:          0
cpu0_DTLB AVERAGE MISS LATENCY: 15.61 cycles
cpu0_ITLB TOTAL        ACCESS:    8933235 HIT:    8734432 MISS:     198803
cpu0_ITLB LOAD         ACCESS:    8933235 HIT:    8734432 MISS:     198803
cpu0_ITLB RFO          ACCESS:          0 HIT:          0 MISS:          0
cpu0_ITLB PREFETCH     ACCESS:          0 HIT:          0 MISS:          0
cpu0_ITLB WRITE        ACCESS:          0 HIT:          0 MISS:          0
cpu0_ITLB TRANSLATION  ACCESS:          0 HIT:          0 MISS:          0
cpu0_ITLB PREFETCH REQUESTED:          0 ISSUED:          0 USEFUL:          0 USELESS:          0
cpu0_ITLB AVERAGE MISS LATENCY: 3.844 cycles
cpu0_L1D TOTAL        ACCESS:  203618151 HIT:  200770755 MISS:    2847396
cpu0_L1D LOAD         ACCESS:  117941520 HIT:  115607539 MISS:    2333981
cpu0_L1D RFO          ACCESS:          0 HIT:          0 MISS:          0
cpu0_L1D PREFETCH     ACCESS:          0 HIT:          0 MISS:          0
cpu0_L1D WRITE        ACCESS:   85648092 HIT:   85161225 MISS:     486867
cpu0_L1D TRANSLATION  ACCESS:      28539 HIT:       1991 MISS:      26548
cpu0_L1D PREFETCH REQUESTED:          0 ISSUED:          0 USEFUL:          0 USELESS:          0
cpu0_L1D AVERAGE MISS LATENCY: 59.67 cycles
cpu0_L1I TOTAL        ACCESS:   10371898 HIT:    8572930 MISS:    1798968
cpu0_L1I LOAD         ACCESS:   10371898 HIT:    8572930 MISS:    1798968
cpu0_L1I RFO          ACCESS:          0 HIT:          0 MISS:          0
cpu0_L1I PREFETCH     ACCESS:          0 HIT:          0 MISS:          0
cpu0_L1I WRITE        ACCESS:          0 HIT:          0 MISS:          0
cpu0_L1I TRANSLATION  ACCESS:          0 HIT:          0 MISS:          0
cpu0_L1I PREFETCH REQUESTED:          0 ISSUED:          0 USEFUL:          0 USELESS:          0
cpu0_L1I AVERAGE MISS LATENCY: 12.38 cycles
cpu0_L2C TOTAL        ACCESS:    3235386 HIT:    2807031 MISS:     428355
cpu0_L2C LOAD         ACCESS:    2711762 HIT:    2335107 MISS:     376655
cpu0_L2C RFO          ACCESS:     133689 HIT:     101001 MISS:      32688
cpu0_L2C PREFETCH     ACCESS:          0 HIT:          0 MISS:          0
cpu0_L2C WRITE        ACCESS:     363473 HIT:     362559 MISS:        914
cpu0_L2C TRANSLATION  ACCESS:      26462 HIT:       8364 MISS:      18098
cpu0_L2C PREFETCH REQUESTED:          0 ISSUED:          0 USEFUL:          0 USELESS:          0
cpu0_L2C AVERAGE MISS LATENCY: 396.8 cycles
cpu0_STLB TOTAL        ACCESS:    1009167 HIT:     982477 MISS:      26690
cpu0_STLB LOAD         ACCESS:    1009167 HIT:     982477 MISS:      26690
cpu0_STLB RFO          ACCESS:          0 HIT:          0 MISS:          0
cpu0_STLB PREFETCH     ACCESS:          0 HIT:          0 MISS:          0
cpu0_STLB WRITE        ACCESS:          0 HIT:          0 MISS:          0
cpu0_STLB TRANSLATION  ACCESS:          0 HIT:          0 MISS:          0
cpu0_STLB PREFETCH REQUESTED:          0 ISSUED:          0 USEFUL:          0 USELESS:          0
cpu0_STLB AVERAGE MISS LATENCY: 550.6 cycles

DRAM Statistics

Channel 0 RQ ROW_BUFFER_HIT:      70829
  ROW_BUFFER_MISS:     358761
 AVG DBUS CONGESTED CYCLE: 3.874
WQ ROW_BUFFER_HIT: Channel 0 
  ROW_BUFFER_MISS:       7976
  FULL:      46304
