WARNING: physical memory size is smaller than virtual memory size.

*** ChampSim Multicore Out-of-Order Simulator ***
Warmup Instructions: 50000000
Simulation Instructions: 600000000
Number of CPUs: 1
Page size: 4096

CPU 0 Tage branch predictor
Off-chip DRAM Size: 4 GiB Channels: 1 Width: 64-bit Data Race: 3200 MT/s
Heartbeat CPU 0 instructions: 10000000 cycles: 2500061 heartbeat IPC: 4 cumulative IPC: 4 (Simulation time: 00 hr 04 min 16 sec)
Heartbeat CPU 0 instructions: 20000000 cycles: 5000061 heartbeat IPC: 4 cumulative IPC: 4 (Simulation time: 00 hr 08 min 21 sec)
Heartbeat CPU 0 instructions: 30000000 cycles: 7500061 heartbeat IPC: 4 cumulative IPC: 4 (Simulation time: 00 hr 12 min 40 sec)
Heartbeat CPU 0 instructions: 40000000 cycles: 10000061 heartbeat IPC: 4 cumulative IPC: 4 (Simulation time: 00 hr 16 min 57 sec)
Heartbeat CPU 0 instructions: 50000000 cycles: 12500061 heartbeat IPC: 4 cumulative IPC: 4 (Simulation time: 00 hr 21 min 04 sec)
Warmup finished CPU 0 instructions: 50000000 cycles: 12500062 cumulative IPC: 4 (Simulation time: 00 hr 21 min 04 sec)
Warmup complete CPU 0 instructions: 50000000 cycles: 12500062 cumulative IPC: 4 (Simulation time: 00 hr 21 min 04 sec)
Heartbeat CPU 0 instructions: 60000004 cycles: 15503755 heartbeat IPC: 3.329 cumulative IPC: 3.329 (Simulation time: 00 hr 26 min 00 sec)
Heartbeat CPU 0 instructions: 70000003 cycles: 18381707 heartbeat IPC: 3.475 cumulative IPC: 3.4 (Simulation time: 00 hr 31 min 02 sec)
Heartbeat CPU 0 instructions: 80000002 cycles: 21403704 heartbeat IPC: 3.309 cumulative IPC: 3.369 (Simulation time: 00 hr 35 min 59 sec)
Heartbeat CPU 0 instructions: 90000000 cycles: 24125815 heartbeat IPC: 3.674 cumulative IPC: 3.441 (Simulation time: 00 hr 40 min 42 sec)
Heartbeat CPU 0 instructions: 100000003 cycles: 26891989 heartbeat IPC: 3.615 cumulative IPC: 3.474 (Simulation time: 00 hr 45 min 32 sec)
Heartbeat CPU 0 instructions: 110000001 cycles: 29797284 heartbeat IPC: 3.442 cumulative IPC: 3.469 (Simulation time: 00 hr 50 min 20 sec)
Heartbeat CPU 0 instructions: 120000001 cycles: 32521234 heartbeat IPC: 3.671 cumulative IPC: 3.496 (Simulation time: 00 hr 55 min 06 sec)
Heartbeat CPU 0 instructions: 130000003 cycles: 35423852 heartbeat IPC: 3.445 cumulative IPC: 3.49 (Simulation time: 00 hr 59 min 54 sec)
Heartbeat CPU 0 instructions: 140000002 cycles: 38261887 heartbeat IPC: 3.524 cumulative IPC: 3.494 (Simulation time: 01 hr 04 min 42 sec)
Heartbeat CPU 0 instructions: 150000001 cycles: 41035638 heartbeat IPC: 3.605 cumulative IPC: 3.504 (Simulation time: 01 hr 09 min 29 sec)
Heartbeat CPU 0 instructions: 160000000 cycles: 43951113 heartbeat IPC: 3.43 cumulative IPC: 3.497 (Simulation time: 01 hr 14 min 20 sec)
Heartbeat CPU 0 instructions: 170000001 cycles: 46882100 heartbeat IPC: 3.412 cumulative IPC: 3.49 (Simulation time: 01 hr 19 min 12 sec)
Heartbeat CPU 0 instructions: 180000000 cycles: 49680801 heartbeat IPC: 3.573 cumulative IPC: 3.496 (Simulation time: 01 hr 24 min 06 sec)
Heartbeat CPU 0 instructions: 190000002 cycles: 52389698 heartbeat IPC: 3.692 cumulative IPC: 3.51 (Simulation time: 01 hr 28 min 55 sec)
Heartbeat CPU 0 instructions: 200000002 cycles: 55219274 heartbeat IPC: 3.534 cumulative IPC: 3.511 (Simulation time: 01 hr 33 min 47 sec)
Heartbeat CPU 0 instructions: 210000000 cycles: 58120080 heartbeat IPC: 3.447 cumulative IPC: 3.507 (Simulation time: 01 hr 38 min 41 sec)
Heartbeat CPU 0 instructions: 220000001 cycles: 60885929 heartbeat IPC: 3.616 cumulative IPC: 3.513 (Simulation time: 01 hr 43 min 30 sec)
Heartbeat CPU 0 instructions: 230000002 cycles: 63780165 heartbeat IPC: 3.455 cumulative IPC: 3.51 (Simulation time: 01 hr 48 min 20 sec)
Heartbeat CPU 0 instructions: 240000004 cycles: 66741505 heartbeat IPC: 3.377 cumulative IPC: 3.503 (Simulation time: 01 hr 53 min 17 sec)
Heartbeat CPU 0 instructions: 250000003 cycles: 69652959 heartbeat IPC: 3.435 cumulative IPC: 3.499 (Simulation time: 01 hr 58 min 10 sec)
Heartbeat CPU 0 instructions: 260000001 cycles: 72449355 heartbeat IPC: 3.576 cumulative IPC: 3.503 (Simulation time: 02 hr 02 min 55 sec)
Heartbeat CPU 0 instructions: 270000002 cycles: 78036955 heartbeat IPC: 1.79 cumulative IPC: 3.357 (Simulation time: 02 hr 09 min 36 sec)
Heartbeat CPU 0 instructions: 280000000 cycles: 86996991 heartbeat IPC: 1.116 cumulative IPC: 3.087 (Simulation time: 02 hr 18 min 49 sec)
Heartbeat CPU 0 instructions: 290000000 cycles: 94253548 heartbeat IPC: 1.378 cumulative IPC: 2.936 (Simulation time: 02 hr 26 min 53 sec)
Heartbeat CPU 0 instructions: 300000003 cycles: 99409445 heartbeat IPC: 1.94 cumulative IPC: 2.877 (Simulation time: 02 hr 33 min 39 sec)
Heartbeat CPU 0 instructions: 310000001 cycles: 108053326 heartbeat IPC: 1.157 cumulative IPC: 2.721 (Simulation time: 02 hr 42 min 52 sec)
Heartbeat CPU 0 instructions: 320000004 cycles: 111887800 heartbeat IPC: 2.608 cumulative IPC: 2.717 (Simulation time: 02 hr 48 min 35 sec)
Heartbeat CPU 0 instructions: 330000000 cycles: 115082178 heartbeat IPC: 3.13 cumulative IPC: 2.73 (Simulation time: 02 hr 53 min 45 sec)
Heartbeat CPU 0 instructions: 340000001 cycles: 118286613 heartbeat IPC: 3.121 cumulative IPC: 2.741 (Simulation time: 02 hr 58 min 53 sec)
Heartbeat CPU 0 instructions: 350000000 cycles: 121643535 heartbeat IPC: 2.979 cumulative IPC: 2.749 (Simulation time: 03 hr 04 min 12 sec)
Heartbeat CPU 0 instructions: 360000004 cycles: 124802183 heartbeat IPC: 3.166 cumulative IPC: 2.76 (Simulation time: 03 hr 09 min 17 sec)
Heartbeat CPU 0 instructions: 370000001 cycles: 127903555 heartbeat IPC: 3.224 cumulative IPC: 2.773 (Simulation time: 03 hr 14 min 25 sec)
Heartbeat CPU 0 instructions: 380000004 cycles: 131025678 heartbeat IPC: 3.203 cumulative IPC: 2.784 (Simulation time: 03 hr 19 min 32 sec)
Heartbeat CPU 0 instructions: 390000002 cycles: 134325718 heartbeat IPC: 3.03 cumulative IPC: 2.791 (Simulation time: 03 hr 24 min 50 sec)
Heartbeat CPU 0 instructions: 400000000 cycles: 137648422 heartbeat IPC: 3.01 cumulative IPC: 2.797 (Simulation time: 03 hr 30 min 05 sec)
Heartbeat CPU 0 instructions: 410000000 cycles: 143710919 heartbeat IPC: 1.649 cumulative IPC: 2.744 (Simulation time: 03 hr 37 min 13 sec)
Heartbeat CPU 0 instructions: 420000003 cycles: 152315338 heartbeat IPC: 1.162 cumulative IPC: 2.646 (Simulation time: 03 hr 46 min 09 sec)
Heartbeat CPU 0 instructions: 430000004 cycles: 157804854 heartbeat IPC: 1.822 cumulative IPC: 2.615 (Simulation time: 03 hr 53 min 12 sec)
Heartbeat CPU 0 instructions: 440000004 cycles: 162631404 heartbeat IPC: 2.072 cumulative IPC: 2.598 (Simulation time: 03 hr 59 min 47 sec)
Heartbeat CPU 0 instructions: 450000000 cycles: 167209514 heartbeat IPC: 2.184 cumulative IPC: 2.585 (Simulation time: 04 hr 06 min 07 sec)
Heartbeat CPU 0 instructions: 460000002 cycles: 175599238 heartbeat IPC: 1.192 cumulative IPC: 2.514 (Simulation time: 04 hr 15 min 02 sec)
Heartbeat CPU 0 instructions: 470000003 cycles: 183474159 heartbeat IPC: 1.27 cumulative IPC: 2.457 (Simulation time: 04 hr 23 min 32 sec)
Heartbeat CPU 0 instructions: 480000000 cycles: 186934779 heartbeat IPC: 2.89 cumulative IPC: 2.465 (Simulation time: 04 hr 28 min 54 sec)
Heartbeat CPU 0 instructions: 490000001 cycles: 190602954 heartbeat IPC: 2.726 cumulative IPC: 2.47 (Simulation time: 04 hr 34 min 24 sec)
Heartbeat CPU 0 instructions: 500000002 cycles: 194138775 heartbeat IPC: 2.828 cumulative IPC: 2.477 (Simulation time: 04 hr 39 min 49 sec)
Heartbeat CPU 0 instructions: 510000000 cycles: 197628088 heartbeat IPC: 2.866 cumulative IPC: 2.485 (Simulation time: 04 hr 45 min 13 sec)
Heartbeat CPU 0 instructions: 520000000 cycles: 201157684 heartbeat IPC: 2.833 cumulative IPC: 2.491 (Simulation time: 04 hr 50 min 38 sec)
Heartbeat CPU 0 instructions: 530000001 cycles: 209949250 heartbeat IPC: 1.137 cumulative IPC: 2.431 (Simulation time: 04 hr 59 min 43 sec)
Heartbeat CPU 0 instructions: 540000000 cycles: 218649262 heartbeat IPC: 1.149 cumulative IPC: 2.377 (Simulation time: 05 hr 08 min 54 sec)
Heartbeat CPU 0 instructions: 550000004 cycles: 228780218 heartbeat IPC: 0.9871 cumulative IPC: 2.312 (Simulation time: 05 hr 19 min 08 sec)
Heartbeat CPU 0 instructions: 560000004 cycles: 232511881 heartbeat IPC: 2.68 cumulative IPC: 2.318 (Simulation time: 05 hr 24 min 35 sec)
Heartbeat CPU 0 instructions: 570000002 cycles: 235338618 heartbeat IPC: 3.538 cumulative IPC: 2.334 (Simulation time: 05 hr 29 min 26 sec)
Heartbeat CPU 0 instructions: 580000000 cycles: 238270005 heartbeat IPC: 3.411 cumulative IPC: 2.348 (Simulation time: 05 hr 34 min 20 sec)
Heartbeat CPU 0 instructions: 590000001 cycles: 241207140 heartbeat IPC: 3.405 cumulative IPC: 2.361 (Simulation time: 05 hr 39 min 12 sec)
Heartbeat CPU 0 instructions: 600000003 cycles: 243908867 heartbeat IPC: 3.701 cumulative IPC: 2.377 (Simulation time: 05 hr 44 min 02 sec)
Heartbeat CPU 0 instructions: 610000001 cycles: 246783326 heartbeat IPC: 3.479 cumulative IPC: 2.39 (Simulation time: 05 hr 49 min 06 sec)
Heartbeat CPU 0 instructions: 620000004 cycles: 249742496 heartbeat IPC: 3.379 cumulative IPC: 2.403 (Simulation time: 05 hr 54 min 05 sec)
Heartbeat CPU 0 instructions: 630000002 cycles: 252554414 heartbeat IPC: 3.556 cumulative IPC: 2.416 (Simulation time: 05 hr 59 min 13 sec)
Heartbeat CPU 0 instructions: 640000004 cycles: 255604293 heartbeat IPC: 3.279 cumulative IPC: 2.427 (Simulation time: 06 hr 04 min 11 sec)
Heartbeat CPU 0 instructions: 650000001 cycles: 258312195 heartbeat IPC: 3.693 cumulative IPC: 2.441 (Simulation time: 06 hr 08 min 55 sec)
Simulation finished CPU 0 instructions: 600000001 cycles: 245812134 cumulative IPC: 2.441 (Simulation time: 06 hr 08 min 55 sec)
Simulation complete CPU 0 instructions: 600000001 cycles: 245812134 cumulative IPC: 2.441 (Simulation time: 06 hr 08 min 55 sec)

ChampSim completed all CPUs

=== Simulation ===
CPU 0 runs traces/400.perlbench-50B.champsimtrace.xz
Region of Interest Statistics

CPU 0 cumulative IPC: 2.441 instructions: 600000001 cycles: 245812134
CPU 0 Branch Prediction Accuracy: 99.01% MPKI: 2.04 Average ROB Occupancy at Mispredict: 93.65
Branch type MPKI
BRANCH_DIRECT_JUMP: 0.0176
BRANCH_INDIRECT: 0.38
BRANCH_CONDITIONAL: 1.19
BRANCH_DIRECT_CALL: 0.0067
BRANCH_INDIRECT_CALL: 0.431
BRANCH_RETURN: 0.0161

LLC TOTAL        ACCESS:     890684 HIT:     383361 MISS:     507323
LLC LOAD         ACCESS:     377827 HIT:     148592 MISS:     229235
LLC RFO          ACCESS:      32784 HIT:      12395 MISS:      20389
LLC PREFETCH     ACCESS:     377827 HIT:     135094 MISS:     242733
LLC WRITE        ACCESS:      83989 HIT:      81804 MISS:       2185
LLC TRANSLATION  ACCESS:      18257 HIT:       5476 MISS:      12781
LLC PREFETCH REQUESTED:     377827 ISSUED:     377827 USEFUL:      90795 USELESS:      84677
LLC AVERAGE MISS LATENCY: 634.1 cycles
cpu0_DTLB TOTAL        ACCESS:  133176101 HIT:  131826023 MISS:    1350078
cpu0_DTLB LOAD         ACCESS:  133176101 HIT:  131826023 MISS:    1350078
cpu0_DTLB RFO          ACCESS:          0 HIT:          0 MISS:          0
cpu0_DTLB PREFETCH     ACCESS:          0 HIT:          0 MISS:          0
cpu0_DTLB WRITE        ACCESS:          0 HIT:          0 MISS:          0
cpu0_DTLB TRANSLATION  ACCESS:          0 HIT:          0 MISS:          0
cpu0_DTLB PREFETCH REQUESTED:          0 ISSUED:          0 USEFUL:          0 USELESS:          0
cpu0_DTLB AVERAGE MISS LATENCY: 12.95 cycles
cpu0_ITLB TOTAL        ACCESS:    8990601 HIT:    8780201 MISS:     210400
cpu0_ITLB LOAD         ACCESS:    8990601 HIT:    8780201 MISS:     210400
cpu0_ITLB RFO          ACCESS:          0 HIT:          0 MISS:          0
cpu0_ITLB PREFETCH     ACCESS:          0 HIT:          0 MISS:          0
cpu0_ITLB WRITE        ACCESS:          0 HIT:          0 MISS:          0
cpu0_ITLB TRANSLATION  ACCESS:          0 HIT:          0 MISS:          0
cpu0_ITLB PREFETCH REQUESTED:          0 ISSUED:          0 USEFUL:          0 USELESS:          0
cpu0_ITLB AVERAGE MISS LATENCY: 3.321 cycles
cpu0_L1D TOTAL        ACCESS:  178256821 HIT:  175321818 MISS:    2935003
cpu0_L1D LOAD         ACCESS:   92738673 HIT:   90330892 MISS:    2407781
cpu0_L1D RFO          ACCESS:          0 HIT:          0 MISS:          0
cpu0_L1D PREFETCH     ACCESS:          0 HIT:          0 MISS:          0
cpu0_L1D WRITE        ACCESS:   85489617 HIT:   84988914 MISS:     500703
cpu0_L1D TRANSLATION  ACCESS:      28531 HIT:       2012 MISS:      26519
cpu0_L1D PREFETCH REQUESTED:          0 ISSUED:          0 USEFUL:          0 USELESS:          0
cpu0_L1D AVERAGE MISS LATENCY: 64.29 cycles
cpu0_L1I TOTAL        ACCESS:   10510367 HIT:    8610525 MISS:    1899842
cpu0_L1I LOAD         ACCESS:   10510367 HIT:    8610525 MISS:    1899842
cpu0_L1I RFO          ACCESS:          0 HIT:          0 MISS:          0
cpu0_L1I PREFETCH     ACCESS:          0 HIT:          0 MISS:          0
cpu0_L1I WRITE        ACCESS:          0 HIT:          0 MISS:          0
cpu0_L1I TRANSLATION  ACCESS:          0 HIT:          0 MISS:          0
cpu0_L1I PREFETCH REQUESTED:          0 ISSUED:          0 USEFUL:          0 USELESS:          0
cpu0_L1I AVERAGE MISS LATENCY: 10.39 cycles
cpu0_L2C TOTAL        ACCESS:    3236044 HIT:    2806251 MISS:     429793
cpu0_L2C LOAD         ACCESS:    2709172 HIT:    2331345 MISS:     377827
cpu0_L2C RFO          ACCESS:     135505 HIT:     102721 MISS:      32784
cpu0_L2C PREFETCH     ACCESS:          0 HIT:          0 MISS:          0
cpu0_L2C WRITE        ACCESS:     364925 HIT:     364000 MISS:        925
cpu0_L2C TRANSLATION  ACCESS:      26442 HIT:       8185 MISS:      18257
cpu0_L2C PREFETCH REQUESTED:          0 ISSUED:          0 USEFUL:          0 USELESS:          0
cpu0_L2C AVERAGE MISS LATENCY: 450.9 cycles
cpu0_STLB TOTAL        ACCESS:    1009865 HIT:     983174 MISS:      26691
cpu0_STLB LOAD         ACCESS:    1009865 HIT:     983174 MISS:      26691
cpu0_STLB RFO          ACCESS:          0 HIT:          0 MISS:          0
cpu0_STLB PREFETCH     ACCESS:          0 HIT:          0 MISS:          0
cpu0_STLB WRITE        ACCESS:          0 HIT:          0 MISS:          0
cpu0_STLB TRANSLATION  ACCESS:          0 HIT:          0 MISS:          0
cpu0_STLB PREFETCH REQUESTED:          0 ISSUED:          0 USEFUL:          0 USELESS:          0
cpu0_STLB AVERAGE MISS LATENCY: 458.9 cycles

DRAM Statistics

Channel 0 RQ ROW_BUFFER_HIT:      88967
  ROW_BUFFER_MISS:     329933
 AVG DBUS CONGESTED CYCLE: 3.898
WQ ROW_BUFFER_HIT: Channel 0 
  ROW_BUFFER_MISS:       4688
  FULL:      50067
