WARNING: physical memory size is smaller than virtual memory size.

*** ChampSim Multicore Out-of-Order Simulator ***
Warmup Instructions: 50000000
Simulation Instructions: 600000000
Number of CPUs: 1
Page size: 4096

Off-chip DRAM Size: 4 GiB Channels: 1 Width: 64-bit Data Race: 3200 MT/s
Heartbeat CPU 0 instructions: 10000001 cycles: 2500318 heartbeat IPC: 3.999 cumulative IPC: 3.999 (Simulation time: 00 hr 03 min 49 sec)
Heartbeat CPU 0 instructions: 20000002 cycles: 5037087 heartbeat IPC: 3.942 cumulative IPC: 3.971 (Simulation time: 00 hr 07 min 51 sec)
Heartbeat CPU 0 instructions: 30000002 cycles: 7537087 heartbeat IPC: 4 cumulative IPC: 3.98 (Simulation time: 00 hr 11 min 21 sec)
Heartbeat CPU 0 instructions: 40000002 cycles: 10037087 heartbeat IPC: 4 cumulative IPC: 3.985 (Simulation time: 00 hr 14 min 55 sec)
Heartbeat CPU 0 instructions: 50000002 cycles: 12537087 heartbeat IPC: 4 cumulative IPC: 3.988 (Simulation time: 00 hr 18 min 28 sec)
Warmup finished CPU 0 instructions: 50000002 cycles: 12537088 cumulative IPC: 3.988 (Simulation time: 00 hr 18 min 28 sec)
Warmup complete CPU 0 instructions: 50000002 cycles: 12537088 cumulative IPC: 3.988 (Simulation time: 00 hr 18 min 28 sec)
Heartbeat CPU 0 instructions: 60000000 cycles: 17714998 heartbeat IPC: 1.931 cumulative IPC: 1.931 (Simulation time: 00 hr 23 min 57 sec)
Heartbeat CPU 0 instructions: 70000002 cycles: 22619298 heartbeat IPC: 2.039 cumulative IPC: 1.984 (Simulation time: 00 hr 29 min 21 sec)
Heartbeat CPU 0 instructions: 80000001 cycles: 27994382 heartbeat IPC: 1.86 cumulative IPC: 1.941 (Simulation time: 00 hr 35 min 00 sec)
Heartbeat CPU 0 instructions: 90000001 cycles: 32874889 heartbeat IPC: 2.049 cumulative IPC: 1.967 (Simulation time: 00 hr 40 min 20 sec)
Heartbeat CPU 0 instructions: 100000000 cycles: 37994335 heartbeat IPC: 1.953 cumulative IPC: 1.964 (Simulation time: 00 hr 45 min 54 sec)
Heartbeat CPU 0 instructions: 110000000 cycles: 42889501 heartbeat IPC: 2.043 cumulative IPC: 1.977 (Simulation time: 00 hr 51 min 18 sec)
Heartbeat CPU 0 instructions: 120000001 cycles: 48095794 heartbeat IPC: 1.921 cumulative IPC: 1.969 (Simulation time: 00 hr 56 min 54 sec)
Heartbeat CPU 0 instructions: 130000001 cycles: 53263786 heartbeat IPC: 1.935 cumulative IPC: 1.964 (Simulation time: 01 hr 02 min 29 sec)
Heartbeat CPU 0 instructions: 140000001 cycles: 58589947 heartbeat IPC: 1.878 cumulative IPC: 1.954 (Simulation time: 01 hr 08 min 06 sec)
Heartbeat CPU 0 instructions: 150000001 cycles: 63924165 heartbeat IPC: 1.875 cumulative IPC: 1.946 (Simulation time: 01 hr 13 min 46 sec)
Heartbeat CPU 0 instructions: 160000004 cycles: 69143694 heartbeat IPC: 1.916 cumulative IPC: 1.943 (Simulation time: 01 hr 19 min 38 sec)
Heartbeat CPU 0 instructions: 170000000 cycles: 77590771 heartbeat IPC: 1.184 cumulative IPC: 1.845 (Simulation time: 01 hr 27 min 35 sec)
Heartbeat CPU 0 instructions: 180000004 cycles: 85992478 heartbeat IPC: 1.19 cumulative IPC: 1.77 (Simulation time: 01 hr 35 min 38 sec)
Heartbeat CPU 0 instructions: 190000001 cycles: 97115805 heartbeat IPC: 0.899 cumulative IPC: 1.655 (Simulation time: 01 hr 44 min 32 sec)
Heartbeat CPU 0 instructions: 200000003 cycles: 101900500 heartbeat IPC: 2.09 cumulative IPC: 1.679 (Simulation time: 01 hr 49 min 27 sec)
Heartbeat CPU 0 instructions: 210000001 cycles: 106832268 heartbeat IPC: 2.028 cumulative IPC: 1.697 (Simulation time: 01 hr 54 min 25 sec)
Heartbeat CPU 0 instructions: 220000000 cycles: 111672094 heartbeat IPC: 2.066 cumulative IPC: 1.715 (Simulation time: 01 hr 59 min 18 sec)
Heartbeat CPU 0 instructions: 230000002 cycles: 116999265 heartbeat IPC: 1.877 cumulative IPC: 1.723 (Simulation time: 02 hr 04 min 24 sec)
Heartbeat CPU 0 instructions: 240000000 cycles: 121850706 heartbeat IPC: 2.061 cumulative IPC: 1.738 (Simulation time: 02 hr 09 min 19 sec)
Heartbeat CPU 0 instructions: 250000000 cycles: 127013615 heartbeat IPC: 1.937 cumulative IPC: 1.747 (Simulation time: 02 hr 14 min 25 sec)
Heartbeat CPU 0 instructions: 260000000 cycles: 132042228 heartbeat IPC: 1.989 cumulative IPC: 1.757 (Simulation time: 02 hr 19 min 27 sec)
Heartbeat CPU 0 instructions: 270000002 cycles: 136933999 heartbeat IPC: 2.044 cumulative IPC: 1.769 (Simulation time: 02 hr 24 min 21 sec)
Heartbeat CPU 0 instructions: 280000002 cycles: 141851099 heartbeat IPC: 2.034 cumulative IPC: 1.779 (Simulation time: 02 hr 29 min 14 sec)
Heartbeat CPU 0 instructions: 290000001 cycles: 147230642 heartbeat IPC: 1.859 cumulative IPC: 1.782 (Simulation time: 02 hr 34 min 24 sec)
Heartbeat CPU 0 instructions: 300000003 cycles: 152306328 heartbeat IPC: 1.97 cumulative IPC: 1.789 (Simulation time: 02 hr 39 min 28 sec)
Heartbeat CPU 0 instructions: 310000001 cycles: 157621202 heartbeat IPC: 1.882 cumulative IPC: 1.792 (Simulation time: 02 hr 44 min 36 sec)
Heartbeat CPU 0 instructions: 320000003 cycles: 162841561 heartbeat IPC: 1.916 cumulative IPC: 1.796 (Simulation time: 02 hr 49 min 41 sec)
Heartbeat CPU 0 instructions: 330000003 cycles: 168151016 heartbeat IPC: 1.883 cumulative IPC: 1.799 (Simulation time: 02 hr 54 min 47 sec)
Heartbeat CPU 0 instructions: 340000000 cycles: 176678083 heartbeat IPC: 1.173 cumulative IPC: 1.767 (Simulation time: 03 hr 01 min 59 sec)
Heartbeat CPU 0 instructions: 350000000 cycles: 185925745 heartbeat IPC: 1.081 cumulative IPC: 1.73 (Simulation time: 03 hr 09 min 45 sec)
Heartbeat CPU 0 instructions: 360000004 cycles: 197055277 heartbeat IPC: 0.8985 cumulative IPC: 1.68 (Simulation time: 03 hr 18 min 40 sec)
Heartbeat CPU 0 instructions: 370000000 cycles: 201474642 heartbeat IPC: 2.263 cumulative IPC: 1.694 (Simulation time: 03 hr 23 min 22 sec)
Heartbeat CPU 0 instructions: 380000001 cycles: 206401375 heartbeat IPC: 2.03 cumulative IPC: 1.702 (Simulation time: 03 hr 28 min 19 sec)
Heartbeat CPU 0 instructions: 390000002 cycles: 211233502 heartbeat IPC: 2.069 cumulative IPC: 1.711 (Simulation time: 03 hr 33 min 14 sec)
Heartbeat CPU 0 instructions: 400000004 cycles: 216173827 heartbeat IPC: 2.024 cumulative IPC: 1.719 (Simulation time: 03 hr 38 min 13 sec)
Heartbeat CPU 0 instructions: 410000000 cycles: 220907352 heartbeat IPC: 2.113 cumulative IPC: 1.728 (Simulation time: 03 hr 43 min 02 sec)
Heartbeat CPU 0 instructions: 420000000 cycles: 226051136 heartbeat IPC: 1.944 cumulative IPC: 1.733 (Simulation time: 03 hr 48 min 04 sec)
Heartbeat CPU 0 instructions: 430000001 cycles: 230532015 heartbeat IPC: 2.232 cumulative IPC: 1.743 (Simulation time: 03 hr 52 min 50 sec)
Heartbeat CPU 0 instructions: 440000000 cycles: 235893422 heartbeat IPC: 1.865 cumulative IPC: 1.746 (Simulation time: 03 hr 58 min 02 sec)
Heartbeat CPU 0 instructions: 450000002 cycles: 240569439 heartbeat IPC: 2.139 cumulative IPC: 1.754 (Simulation time: 04 hr 02 min 52 sec)
Heartbeat CPU 0 instructions: 460000000 cycles: 245371389 heartbeat IPC: 2.082 cumulative IPC: 1.761 (Simulation time: 04 hr 07 min 45 sec)
Heartbeat CPU 0 instructions: 470000000 cycles: 250358045 heartbeat IPC: 2.005 cumulative IPC: 1.766 (Simulation time: 04 hr 12 min 45 sec)
Heartbeat CPU 0 instructions: 480000003 cycles: 255184928 heartbeat IPC: 2.072 cumulative IPC: 1.772 (Simulation time: 04 hr 17 min 38 sec)
Heartbeat CPU 0 instructions: 490000000 cycles: 259803301 heartbeat IPC: 2.165 cumulative IPC: 1.779 (Simulation time: 04 hr 22 min 22 sec)
Heartbeat CPU 0 instructions: 500000000 cycles: 264829443 heartbeat IPC: 1.99 cumulative IPC: 1.784 (Simulation time: 04 hr 27 min 31 sec)
Heartbeat CPU 0 instructions: 510000003 cycles: 270514531 heartbeat IPC: 1.759 cumulative IPC: 1.783 (Simulation time: 04 hr 32 min 52 sec)
Heartbeat CPU 0 instructions: 520000001 cycles: 275215510 heartbeat IPC: 2.127 cumulative IPC: 1.789 (Simulation time: 04 hr 37 min 43 sec)
Heartbeat CPU 0 instructions: 530000002 cycles: 280375694 heartbeat IPC: 1.938 cumulative IPC: 1.792 (Simulation time: 04 hr 42 min 48 sec)
Heartbeat CPU 0 instructions: 540000000 cycles: 285499746 heartbeat IPC: 1.952 cumulative IPC: 1.795 (Simulation time: 04 hr 47 min 50 sec)
Heartbeat CPU 0 instructions: 550000001 cycles: 290316633 heartbeat IPC: 2.076 cumulative IPC: 1.8 (Simulation time: 04 hr 52 min 45 sec)
Heartbeat CPU 0 instructions: 560000000 cycles: 295584661 heartbeat IPC: 1.898 cumulative IPC: 1.802 (Simulation time: 04 hr 57 min 54 sec)
Heartbeat CPU 0 instructions: 570000004 cycles: 302670988 heartbeat IPC: 1.411 cumulative IPC: 1.792 (Simulation time: 05 hr 04 min 25 sec)
Heartbeat CPU 0 instructions: 580000003 cycles: 310540555 heartbeat IPC: 1.271 cumulative IPC: 1.779 (Simulation time: 05 hr 11 min 28 sec)
Heartbeat CPU 0 instructions: 590000002 cycles: 324048872 heartbeat IPC: 0.7403 cumulative IPC: 1.733 (Simulation time: 05 hr 22 min 08 sec)
Heartbeat CPU 0 instructions: 600000000 cycles: 328680690 heartbeat IPC: 2.159 cumulative IPC: 1.74 (Simulation time: 05 hr 27 min 10 sec)
Heartbeat CPU 0 instructions: 610000002 cycles: 333174730 heartbeat IPC: 2.225 cumulative IPC: 1.747 (Simulation time: 05 hr 32 min 08 sec)
Heartbeat CPU 0 instructions: 620000000 cycles: 337982149 heartbeat IPC: 2.08 cumulative IPC: 1.751 (Simulation time: 05 hr 37 min 12 sec)
Heartbeat CPU 0 instructions: 630000002 cycles: 343074773 heartbeat IPC: 1.964 cumulative IPC: 1.755 (Simulation time: 05 hr 42 min 21 sec)
Heartbeat CPU 0 instructions: 640000001 cycles: 347928905 heartbeat IPC: 2.06 cumulative IPC: 1.759 (Simulation time: 05 hr 47 min 24 sec)
Heartbeat CPU 0 instructions: 650000000 cycles: 352487063 heartbeat IPC: 2.194 cumulative IPC: 1.765 (Simulation time: 05 hr 51 min 57 sec)
Simulation finished CPU 0 instructions: 600000001 cycles: 339949977 cumulative IPC: 1.765 (Simulation time: 05 hr 51 min 57 sec)
Simulation complete CPU 0 instructions: 600000001 cycles: 339949977 cumulative IPC: 1.765 (Simulation time: 05 hr 51 min 57 sec)

ChampSim completed all CPUs

=== Simulation ===
CPU 0 runs traces/400.perlbench-41B.champsimtrace.xz
Region of Interest Statistics

CPU 0 cumulative IPC: 1.765 instructions: 600000001 cycles: 339949977
CPU 0 Branch Prediction Accuracy: 93.95% MPKI: 12.5 Average ROB Occupancy at Mispredict: 29.52
Branch type MPKI
BRANCH_DIRECT_JUMP: 0.0123
BRANCH_INDIRECT: 0.323
BRANCH_CONDITIONAL: 12
BRANCH_DIRECT_CALL: 0.0043
BRANCH_INDIRECT_CALL: 0.2
BRANCH_RETURN: 0.00828

LLC TOTAL        ACCESS:     465765 HIT:     207574 MISS:     258191
LLC LOAD         ACCESS:     309466 HIT:     135442 MISS:     174024
LLC RFO          ACCESS:      25138 HIT:      10011 MISS:      15127
LLC PREFETCH     ACCESS:      50785 HIT:      27800 MISS:      22985
LLC WRITE        ACCESS:      64685 HIT:      31751 MISS:      32934
LLC TRANSLATION  ACCESS:      15691 HIT:       2570 MISS:      13121
LLC PREFETCH REQUESTED:      50785 ISSUED:      50785 USEFUL:      13116 USELESS:       6945
LLC AVERAGE MISS LATENCY: 492.8 cycles
cpu0_DTLB TOTAL        ACCESS:  153658412 HIT:  152981783 MISS:     676629
cpu0_DTLB LOAD         ACCESS:  153658412 HIT:  152981783 MISS:     676629
cpu0_DTLB RFO          ACCESS:          0 HIT:          0 MISS:          0
cpu0_DTLB PREFETCH     ACCESS:          0 HIT:          0 MISS:          0
cpu0_DTLB WRITE        ACCESS:          0 HIT:          0 MISS:          0
cpu0_DTLB TRANSLATION  ACCESS:          0 HIT:          0 MISS:          0
cpu0_DTLB PREFETCH REQUESTED:          0 ISSUED:          0 USEFUL:          0 USELESS:          0
cpu0_DTLB AVERAGE MISS LATENCY: 17.75 cycles
cpu0_ITLB TOTAL        ACCESS:    4836046 HIT:    4778001 MISS:      58045
cpu0_ITLB LOAD         ACCESS:    4836046 HIT:    4778001 MISS:      58045
cpu0_ITLB RFO          ACCESS:          0 HIT:          0 MISS:          0
cpu0_ITLB PREFETCH     ACCESS:          0 HIT:          0 MISS:          0
cpu0_ITLB WRITE        ACCESS:          0 HIT:          0 MISS:          0
cpu0_ITLB TRANSLATION  ACCESS:          0 HIT:          0 MISS:          0
cpu0_ITLB PREFETCH REQUESTED:          0 ISSUED:          0 USEFUL:          0 USELESS:          0
cpu0_ITLB AVERAGE MISS LATENCY: 6.49 cycles
cpu0_L1D TOTAL        ACCESS:  200291093 HIT:  198973988 MISS:    1317105
cpu0_L1D LOAD         ACCESS:  117047189 HIT:  116032671 MISS:    1014518
cpu0_L1D RFO          ACCESS:          0 HIT:          0 MISS:          0
cpu0_L1D PREFETCH     ACCESS:          0 HIT:          0 MISS:          0
cpu0_L1D WRITE        ACCESS:   83219437 HIT:   82939739 MISS:     279698
cpu0_L1D TRANSLATION  ACCESS:      24467 HIT:       1578 MISS:      22889
cpu0_L1D PREFETCH REQUESTED:          0 ISSUED:          0 USEFUL:          0 USELESS:          0
cpu0_L1D AVERAGE MISS LATENCY: 90.42 cycles
cpu0_L1I TOTAL        ACCESS:    5578336 HIT:    4816301 MISS:     762035
cpu0_L1I LOAD         ACCESS:    5578336 HIT:    4816301 MISS:     762035
cpu0_L1I RFO          ACCESS:          0 HIT:          0 MISS:          0
cpu0_L1I PREFETCH     ACCESS:          0 HIT:          0 MISS:          0
cpu0_L1I WRITE        ACCESS:          0 HIT:          0 MISS:          0
cpu0_L1I TRANSLATION  ACCESS:          0 HIT:          0 MISS:          0
cpu0_L1I PREFETCH REQUESTED:          0 ISSUED:          0 USEFUL:          0 USELESS:          0
cpu0_L1I AVERAGE MISS LATENCY: 12.15 cycles
cpu0_L2C TOTAL        ACCESS:    1382513 HIT:    1031344 MISS:     351169
cpu0_L2C LOAD         ACCESS:    1125684 HIT:     816218 MISS:     309466
cpu0_L2C RFO          ACCESS:      63895 HIT:      38757 MISS:      25138
cpu0_L2C PREFETCH     ACCESS:          0 HIT:          0 MISS:          0
cpu0_L2C WRITE        ACCESS:     170127 HIT:     169253 MISS:        874
cpu0_L2C TRANSLATION  ACCESS:      22807 HIT:       7116 MISS:      15691
cpu0_L2C PREFETCH REQUESTED:          0 ISSUED:          0 USEFUL:          0 USELESS:          0
cpu0_L2C AVERAGE MISS LATENCY: 340.9 cycles
cpu0_STLB TOTAL        ACCESS:     505034 HIT:     482243 MISS:      22791
cpu0_STLB LOAD         ACCESS:     505034 HIT:     482243 MISS:      22791
cpu0_STLB RFO          ACCESS:          0 HIT:          0 MISS:          0
cpu0_STLB PREFETCH     ACCESS:          0 HIT:          0 MISS:          0
cpu0_STLB WRITE        ACCESS:          0 HIT:          0 MISS:          0
cpu0_STLB TRANSLATION  ACCESS:          0 HIT:          0 MISS:          0
cpu0_STLB PREFETCH REQUESTED:          0 ISSUED:          0 USEFUL:          0 USELESS:          0
cpu0_STLB AVERAGE MISS LATENCY: 404.7 cycles

DRAM Statistics

Channel 0 RQ ROW_BUFFER_HIT:      33812
  ROW_BUFFER_MISS:     187663
 AVG DBUS CONGESTED CYCLE: 3.813
WQ ROW_BUFFER_HIT: Channel 0 
  ROW_BUFFER_MISS:       7832
  FULL:      27479
