WARNING: physical memory size is smaller than virtual memory size.

*** ChampSim Multicore Out-of-Order Simulator ***
Warmup Instructions: 50000000
Simulation Instructions: 600000000
Number of CPUs: 1
Page size: 4096

Off-chip DRAM Size: 4 GiB Channels: 1 Width: 64-bit Data Race: 3200 MT/s
Heartbeat CPU 0 instructions: 10000000 cycles: 2500061 heartbeat IPC: 4 cumulative IPC: 4 (Simulation time: 00 hr 03 min 34 sec)
Heartbeat CPU 0 instructions: 20000000 cycles: 5000061 heartbeat IPC: 4 cumulative IPC: 4 (Simulation time: 00 hr 07 min 08 sec)
Heartbeat CPU 0 instructions: 30000000 cycles: 7500061 heartbeat IPC: 4 cumulative IPC: 4 (Simulation time: 00 hr 10 min 41 sec)
Heartbeat CPU 0 instructions: 40000000 cycles: 10000061 heartbeat IPC: 4 cumulative IPC: 4 (Simulation time: 00 hr 14 min 08 sec)
Heartbeat CPU 0 instructions: 50000000 cycles: 12500061 heartbeat IPC: 4 cumulative IPC: 4 (Simulation time: 00 hr 17 min 41 sec)
Warmup finished CPU 0 instructions: 50000000 cycles: 12500062 cumulative IPC: 4 (Simulation time: 00 hr 17 min 41 sec)
Warmup complete CPU 0 instructions: 50000000 cycles: 12500062 cumulative IPC: 4 (Simulation time: 00 hr 17 min 41 sec)
Heartbeat CPU 0 instructions: 60000002 cycles: 16260941 heartbeat IPC: 2.659 cumulative IPC: 2.659 (Simulation time: 00 hr 22 min 22 sec)
Heartbeat CPU 0 instructions: 70000003 cycles: 20425704 heartbeat IPC: 2.401 cumulative IPC: 2.523 (Simulation time: 00 hr 27 min 25 sec)
Heartbeat CPU 0 instructions: 80000003 cycles: 24625630 heartbeat IPC: 2.381 cumulative IPC: 2.474 (Simulation time: 00 hr 32 min 16 sec)
Heartbeat CPU 0 instructions: 90000000 cycles: 27859293 heartbeat IPC: 3.092 cumulative IPC: 2.604 (Simulation time: 00 hr 36 min 43 sec)
Heartbeat CPU 0 instructions: 100000003 cycles: 31868365 heartbeat IPC: 2.494 cumulative IPC: 2.582 (Simulation time: 00 hr 41 min 37 sec)
Heartbeat CPU 0 instructions: 110000002 cycles: 35843534 heartbeat IPC: 2.516 cumulative IPC: 2.57 (Simulation time: 00 hr 46 min 44 sec)
Heartbeat CPU 0 instructions: 120000001 cycles: 39401620 heartbeat IPC: 2.81 cumulative IPC: 2.602 (Simulation time: 00 hr 51 min 45 sec)
Heartbeat CPU 0 instructions: 130000003 cycles: 43056711 heartbeat IPC: 2.736 cumulative IPC: 2.618 (Simulation time: 00 hr 56 min 49 sec)
Heartbeat CPU 0 instructions: 140000002 cycles: 47010687 heartbeat IPC: 2.529 cumulative IPC: 2.608 (Simulation time: 01 hr 01 min 59 sec)
Heartbeat CPU 0 instructions: 150000001 cycles: 50909566 heartbeat IPC: 2.565 cumulative IPC: 2.604 (Simulation time: 01 hr 06 min 52 sec)
Heartbeat CPU 0 instructions: 160000000 cycles: 54556484 heartbeat IPC: 2.742 cumulative IPC: 2.616 (Simulation time: 01 hr 11 min 36 sec)
Heartbeat CPU 0 instructions: 170000001 cycles: 58523836 heartbeat IPC: 2.521 cumulative IPC: 2.607 (Simulation time: 01 hr 16 min 32 sec)
Heartbeat CPU 0 instructions: 180000001 cycles: 61952959 heartbeat IPC: 2.916 cumulative IPC: 2.629 (Simulation time: 01 hr 21 min 18 sec)
Heartbeat CPU 0 instructions: 190000002 cycles: 65435636 heartbeat IPC: 2.871 cumulative IPC: 2.645 (Simulation time: 01 hr 26 min 05 sec)
Heartbeat CPU 0 instructions: 200000002 cycles: 69167154 heartbeat IPC: 2.68 cumulative IPC: 2.647 (Simulation time: 01 hr 31 min 09 sec)
Heartbeat CPU 0 instructions: 210000000 cycles: 72716711 heartbeat IPC: 2.817 cumulative IPC: 2.657 (Simulation time: 01 hr 35 min 45 sec)
Heartbeat CPU 0 instructions: 220000001 cycles: 76419789 heartbeat IPC: 2.7 cumulative IPC: 2.66 (Simulation time: 01 hr 40 min 26 sec)
Heartbeat CPU 0 instructions: 230000002 cycles: 80122010 heartbeat IPC: 2.701 cumulative IPC: 2.662 (Simulation time: 01 hr 45 min 08 sec)
Heartbeat CPU 0 instructions: 240000004 cycles: 84118712 heartbeat IPC: 2.502 cumulative IPC: 2.653 (Simulation time: 01 hr 49 min 55 sec)
Heartbeat CPU 0 instructions: 250000003 cycles: 88437098 heartbeat IPC: 2.316 cumulative IPC: 2.634 (Simulation time: 01 hr 54 min 55 sec)
Heartbeat CPU 0 instructions: 260000001 cycles: 92089862 heartbeat IPC: 2.738 cumulative IPC: 2.639 (Simulation time: 01 hr 59 min 32 sec)
Heartbeat CPU 0 instructions: 270000003 cycles: 99609639 heartbeat IPC: 1.33 cumulative IPC: 2.526 (Simulation time: 02 hr 06 min 38 sec)
Heartbeat CPU 0 instructions: 280000000 cycles: 111682333 heartbeat IPC: 0.8283 cumulative IPC: 2.319 (Simulation time: 02 hr 16 min 48 sec)
Heartbeat CPU 0 instructions: 290000000 cycles: 122738847 heartbeat IPC: 0.9044 cumulative IPC: 2.177 (Simulation time: 02 hr 26 min 37 sec)
Heartbeat CPU 0 instructions: 300000000 cycles: 130860521 heartbeat IPC: 1.231 cumulative IPC: 2.112 (Simulation time: 02 hr 34 min 28 sec)
Heartbeat CPU 0 instructions: 310000004 cycles: 142677978 heartbeat IPC: 0.8462 cumulative IPC: 1.997 (Simulation time: 02 hr 44 min 36 sec)
Heartbeat CPU 0 instructions: 320000004 cycles: 148094249 heartbeat IPC: 1.846 cumulative IPC: 1.991 (Simulation time: 02 hr 50 min 36 sec)
Heartbeat CPU 0 instructions: 330000000 cycles: 152160580 heartbeat IPC: 2.459 cumulative IPC: 2.005 (Simulation time: 02 hr 55 min 42 sec)
Heartbeat CPU 0 instructions: 340000001 cycles: 156509894 heartbeat IPC: 2.299 cumulative IPC: 2.014 (Simulation time: 03 hr 00 min 49 sec)
Heartbeat CPU 0 instructions: 350000004 cycles: 160997274 heartbeat IPC: 2.228 cumulative IPC: 2.02 (Simulation time: 03 hr 06 min 04 sec)
Heartbeat CPU 0 instructions: 360000003 cycles: 165181819 heartbeat IPC: 2.39 cumulative IPC: 2.03 (Simulation time: 03 hr 11 min 11 sec)
Heartbeat CPU 0 instructions: 370000001 cycles: 169251715 heartbeat IPC: 2.457 cumulative IPC: 2.041 (Simulation time: 03 hr 16 min 06 sec)
Heartbeat CPU 0 instructions: 380000004 cycles: 173224473 heartbeat IPC: 2.517 cumulative IPC: 2.053 (Simulation time: 03 hr 21 min 09 sec)
Heartbeat CPU 0 instructions: 390000002 cycles: 177398770 heartbeat IPC: 2.396 cumulative IPC: 2.062 (Simulation time: 03 hr 26 min 16 sec)
Heartbeat CPU 0 instructions: 400000000 cycles: 181890790 heartbeat IPC: 2.226 cumulative IPC: 2.066 (Simulation time: 03 hr 31 min 28 sec)
Heartbeat CPU 0 instructions: 410000000 cycles: 190308510 heartbeat IPC: 1.188 cumulative IPC: 2.025 (Simulation time: 03 hr 39 min 19 sec)
Heartbeat CPU 0 instructions: 420000001 cycles: 202630372 heartbeat IPC: 0.8116 cumulative IPC: 1.946 (Simulation time: 03 hr 49 min 46 sec)
Heartbeat CPU 0 instructions: 430000002 cycles: 211289196 heartbeat IPC: 1.155 cumulative IPC: 1.912 (Simulation time: 03 hr 58 min 01 sec)
Heartbeat CPU 0 instructions: 440000002 cycles: 218714424 heartbeat IPC: 1.347 cumulative IPC: 1.891 (Simulation time: 04 hr 05 min 22 sec)
Heartbeat CPU 0 instructions: 450000000 cycles: 226259807 heartbeat IPC: 1.325 cumulative IPC: 1.871 (Simulation time: 04 hr 12 min 45 sec)
Heartbeat CPU 0 instructions: 460000002 cycles: 237927845 heartbeat IPC: 0.857 cumulative IPC: 1.819 (Simulation time: 04 hr 22 min 44 sec)
Heartbeat CPU 0 instructions: 470000003 cycles: 248251177 heartbeat IPC: 0.9687 cumulative IPC: 1.782 (Simulation time: 04 hr 31 min 54 sec)
Heartbeat CPU 0 instructions: 480000003 cycles: 252665353 heartbeat IPC: 2.265 cumulative IPC: 1.79 (Simulation time: 04 hr 37 min 04 sec)
Heartbeat CPU 0 instructions: 490000001 cycles: 257433955 heartbeat IPC: 2.097 cumulative IPC: 1.796 (Simulation time: 04 hr 42 min 30 sec)
Heartbeat CPU 0 instructions: 500000002 cycles: 261963670 heartbeat IPC: 2.208 cumulative IPC: 1.804 (Simulation time: 04 hr 47 min 45 sec)
Heartbeat CPU 0 instructions: 510000000 cycles: 266479228 heartbeat IPC: 2.215 cumulative IPC: 1.811 (Simulation time: 04 hr 53 min 02 sec)
Heartbeat CPU 0 instructions: 520000000 cycles: 271081032 heartbeat IPC: 2.173 cumulative IPC: 1.818 (Simulation time: 04 hr 58 min 18 sec)
Heartbeat CPU 0 instructions: 530000001 cycles: 284151573 heartbeat IPC: 0.7651 cumulative IPC: 1.767 (Simulation time: 05 hr 08 min 59 sec)
Heartbeat CPU 0 instructions: 540000000 cycles: 296735584 heartbeat IPC: 0.7947 cumulative IPC: 1.724 (Simulation time: 05 hr 19 min 34 sec)
Heartbeat CPU 0 instructions: 550000002 cycles: 310310337 heartbeat IPC: 0.7367 cumulative IPC: 1.679 (Simulation time: 05 hr 30 min 41 sec)
Heartbeat CPU 0 instructions: 560000004 cycles: 314729044 heartbeat IPC: 2.263 cumulative IPC: 1.687 (Simulation time: 05 hr 35 min 46 sec)
Heartbeat CPU 0 instructions: 570000001 cycles: 317877201 heartbeat IPC: 3.176 cumulative IPC: 1.703 (Simulation time: 05 hr 40 min 16 sec)
Heartbeat CPU 0 instructions: 580000003 cycles: 321381434 heartbeat IPC: 2.854 cumulative IPC: 1.716 (Simulation time: 05 hr 44 min 49 sec)
Heartbeat CPU 0 instructions: 590000001 cycles: 324980343 heartbeat IPC: 2.779 cumulative IPC: 1.728 (Simulation time: 05 hr 49 min 26 sec)
Heartbeat CPU 0 instructions: 600000003 cycles: 327975539 heartbeat IPC: 3.339 cumulative IPC: 1.743 (Simulation time: 05 hr 53 min 53 sec)
Heartbeat CPU 0 instructions: 610000001 cycles: 331486690 heartbeat IPC: 2.848 cumulative IPC: 1.756 (Simulation time: 05 hr 58 min 33 sec)
Heartbeat CPU 0 instructions: 620000000 cycles: 335034229 heartbeat IPC: 2.819 cumulative IPC: 1.767 (Simulation time: 06 hr 03 min 11 sec)
Heartbeat CPU 0 instructions: 630000002 cycles: 338236749 heartbeat IPC: 3.123 cumulative IPC: 1.781 (Simulation time: 06 hr 07 min 39 sec)
Heartbeat CPU 0 instructions: 640000004 cycles: 341997018 heartbeat IPC: 2.659 cumulative IPC: 1.791 (Simulation time: 06 hr 12 min 25 sec)
Heartbeat CPU 0 instructions: 650000001 cycles: 345406790 heartbeat IPC: 2.933 cumulative IPC: 1.802 (Simulation time: 06 hr 16 min 58 sec)
Simulation finished CPU 0 instructions: 600000001 cycles: 332906729 cumulative IPC: 1.802 (Simulation time: 06 hr 16 min 58 sec)
Simulation complete CPU 0 instructions: 600000001 cycles: 332906729 cumulative IPC: 1.802 (Simulation time: 06 hr 16 min 58 sec)

ChampSim completed all CPUs

=== Simulation ===
CPU 0 runs traces/400.perlbench-50B.champsimtrace.xz
Region of Interest Statistics

CPU 0 cumulative IPC: 1.802 instructions: 600000001 cycles: 332906729
CPU 0 Branch Prediction Accuracy: 96.09% MPKI: 8.064 Average ROB Occupancy at Mispredict: 40.4
Branch type MPKI
BRANCH_DIRECT_JUMP: 0.0176
BRANCH_INDIRECT: 0.38
BRANCH_CONDITIONAL: 7.21
BRANCH_DIRECT_CALL: 0.0067
BRANCH_INDIRECT_CALL: 0.431
BRANCH_RETURN: 0.0161

LLC TOTAL        ACCESS:     513732 HIT:     200345 MISS:     313387
LLC LOAD         ACCESS:     378548 HIT:      99262 MISS:     279286
LLC RFO          ACCESS:      32778 HIT:      12125 MISS:      20653
LLC PREFETCH     ACCESS:          0 HIT:          0 MISS:          0
LLC WRITE        ACCESS:      84122 HIT:      82707 MISS:       1415
LLC TRANSLATION  ACCESS:      18284 HIT:       6251 MISS:      12033
LLC PREFETCH REQUESTED:          0 ISSUED:          0 USEFUL:          0 USELESS:          0
LLC AVERAGE MISS LATENCY: 530.6 cycles
cpu0_DTLB TOTAL        ACCESS:  146259921 HIT:  144966076 MISS:    1293845
cpu0_DTLB LOAD         ACCESS:  146259921 HIT:  144966076 MISS:    1293845
cpu0_DTLB RFO          ACCESS:          0 HIT:          0 MISS:          0
cpu0_DTLB PREFETCH     ACCESS:          0 HIT:          0 MISS:          0
cpu0_DTLB WRITE        ACCESS:          0 HIT:          0 MISS:          0
cpu0_DTLB TRANSLATION  ACCESS:          0 HIT:          0 MISS:          0
cpu0_DTLB PREFETCH REQUESTED:          0 ISSUED:          0 USEFUL:          0 USELESS:          0
cpu0_DTLB AVERAGE MISS LATENCY: 11.62 cycles
cpu0_ITLB TOTAL        ACCESS:    8992755 HIT:    8820162 MISS:     172593
cpu0_ITLB LOAD         ACCESS:    8992755 HIT:    8820162 MISS:     172593
cpu0_ITLB RFO          ACCESS:          0 HIT:          0 MISS:          0
cpu0_ITLB PREFETCH     ACCESS:          0 HIT:          0 MISS:          0
cpu0_ITLB WRITE        ACCESS:          0 HIT:          0 MISS:          0
cpu0_ITLB TRANSLATION  ACCESS:          0 HIT:          0 MISS:          0
cpu0_ITLB PREFETCH REQUESTED:          0 ISSUED:          0 USEFUL:          0 USELESS:          0
cpu0_ITLB AVERAGE MISS LATENCY: 4.059 cycles
cpu0_L1D TOTAL        ACCESS:  193012426 HIT:  190202910 MISS:    2809516
cpu0_L1D LOAD         ACCESS:  107194963 HIT:  104883127 MISS:    2311836
cpu0_L1D RFO          ACCESS:          0 HIT:          0 MISS:          0
cpu0_L1D PREFETCH     ACCESS:          0 HIT:          0 MISS:          0
cpu0_L1D WRITE        ACCESS:   85788934 HIT:   85317764 MISS:     471170
cpu0_L1D TRANSLATION  ACCESS:      28529 HIT:       2019 MISS:      26510
cpu0_L1D PREFETCH REQUESTED:          0 ISSUED:          0 USEFUL:          0 USELESS:          0
cpu0_L1D AVERAGE MISS LATENCY: 62.59 cycles
cpu0_L1I TOTAL        ACCESS:   10426965 HIT:    8711725 MISS:    1715240
cpu0_L1I LOAD         ACCESS:   10426965 HIT:    8711725 MISS:    1715240
cpu0_L1I RFO          ACCESS:          0 HIT:          0 MISS:          0
cpu0_L1I PREFETCH     ACCESS:          0 HIT:          0 MISS:          0
cpu0_L1I WRITE        ACCESS:          0 HIT:          0 MISS:          0
cpu0_L1I TRANSLATION  ACCESS:          0 HIT:          0 MISS:          0
cpu0_L1I PREFETCH REQUESTED:          0 ISSUED:          0 USEFUL:          0 USELESS:          0
cpu0_L1I AVERAGE MISS LATENCY: 11.86 cycles
cpu0_L2C TOTAL        ACCESS:    3232224 HIT:    2801682 MISS:     430542
cpu0_L2C LOAD         ACCESS:    2710487 HIT:    2331939 MISS:     378548
cpu0_L2C RFO          ACCESS:     132935 HIT:     100157 MISS:      32778
cpu0_L2C PREFETCH     ACCESS:          0 HIT:          0 MISS:          0
cpu0_L2C WRITE        ACCESS:     362344 HIT:     361412 MISS:        932
cpu0_L2C TRANSLATION  ACCESS:      26458 HIT:       8174 MISS:      18284
cpu0_L2C PREFETCH REQUESTED:          0 ISSUED:          0 USEFUL:          0 USELESS:          0
cpu0_L2C AVERAGE MISS LATENCY: 406.9 cycles
cpu0_STLB TOTAL        ACCESS:    1009373 HIT:     982678 MISS:      26695
cpu0_STLB LOAD         ACCESS:    1009373 HIT:     982678 MISS:      26695
cpu0_STLB RFO          ACCESS:          0 HIT:          0 MISS:          0
cpu0_STLB PREFETCH     ACCESS:          0 HIT:          0 MISS:          0
cpu0_STLB WRITE        ACCESS:          0 HIT:          0 MISS:          0
cpu0_STLB TRANSLATION  ACCESS:          0 HIT:          0 MISS:          0
cpu0_STLB PREFETCH REQUESTED:          0 ISSUED:          0 USEFUL:          0 USELESS:          0
cpu0_STLB AVERAGE MISS LATENCY: 340.1 cycles

DRAM Statistics

Channel 0 RQ ROW_BUFFER_HIT:      56322
  ROW_BUFFER_MISS:     255601
 AVG DBUS CONGESTED CYCLE: 3.795
WQ ROW_BUFFER_HIT: Channel 0 
  ROW_BUFFER_MISS:       9666
  FULL:      39748
