WARNING: physical memory size is smaller than virtual memory size.

*** ChampSim Multicore Out-of-Order Simulator ***
Warmup Instructions: 50000000
Simulation Instructions: 600000000
Number of CPUs: 1
Page size: 4096

Off-chip DRAM Size: 4 GiB Channels: 1 Width: 64-bit Data Race: 3200 MT/s
Heartbeat CPU 0 instructions: 10000000 cycles: 2500061 heartbeat IPC: 4 cumulative IPC: 4 (Simulation time: 00 hr 00 min 50 sec)
Heartbeat CPU 0 instructions: 20000000 cycles: 5000061 heartbeat IPC: 4 cumulative IPC: 4 (Simulation time: 00 hr 02 min 06 sec)
Heartbeat CPU 0 instructions: 30000000 cycles: 7500061 heartbeat IPC: 4 cumulative IPC: 4 (Simulation time: 00 hr 03 min 48 sec)
Heartbeat CPU 0 instructions: 40000000 cycles: 10000061 heartbeat IPC: 4 cumulative IPC: 4 (Simulation time: 00 hr 05 min 58 sec)
Heartbeat CPU 0 instructions: 50000000 cycles: 12500061 heartbeat IPC: 4 cumulative IPC: 4 (Simulation time: 00 hr 08 min 34 sec)
Warmup finished CPU 0 instructions: 50000000 cycles: 12500062 cumulative IPC: 4 (Simulation time: 00 hr 08 min 34 sec)
Warmup complete CPU 0 instructions: 50000000 cycles: 12500062 cumulative IPC: 4 (Simulation time: 00 hr 08 min 34 sec)
Heartbeat CPU 0 instructions: 60000002 cycles: 16435171 heartbeat IPC: 2.541 cumulative IPC: 2.541 (Simulation time: 00 hr 12 min 52 sec)
Heartbeat CPU 0 instructions: 70000003 cycles: 20748499 heartbeat IPC: 2.318 cumulative IPC: 2.425 (Simulation time: 00 hr 17 min 57 sec)
Heartbeat CPU 0 instructions: 80000003 cycles: 25211542 heartbeat IPC: 2.241 cumulative IPC: 2.36 (Simulation time: 00 hr 22 min 46 sec)
Heartbeat CPU 0 instructions: 90000000 cycles: 28901427 heartbeat IPC: 2.71 cumulative IPC: 2.439 (Simulation time: 00 hr 27 min 11 sec)
Heartbeat CPU 0 instructions: 100000003 cycles: 32794853 heartbeat IPC: 2.568 cumulative IPC: 2.464 (Simulation time: 00 hr 31 min 48 sec)
Heartbeat CPU 0 instructions: 110000002 cycles: 36885725 heartbeat IPC: 2.444 cumulative IPC: 2.46 (Simulation time: 00 hr 36 min 31 sec)
Heartbeat CPU 0 instructions: 120000001 cycles: 40598644 heartbeat IPC: 2.693 cumulative IPC: 2.491 (Simulation time: 00 hr 41 min 02 sec)
Heartbeat CPU 0 instructions: 130000003 cycles: 44363209 heartbeat IPC: 2.656 cumulative IPC: 2.511 (Simulation time: 00 hr 45 min 33 sec)
Heartbeat CPU 0 instructions: 140000002 cycles: 48488199 heartbeat IPC: 2.424 cumulative IPC: 2.501 (Simulation time: 00 hr 50 min 15 sec)
Heartbeat CPU 0 instructions: 150000001 cycles: 52532064 heartbeat IPC: 2.473 cumulative IPC: 2.498 (Simulation time: 00 hr 54 min 49 sec)
Heartbeat CPU 0 instructions: 160000000 cycles: 56181064 heartbeat IPC: 2.74 cumulative IPC: 2.518 (Simulation time: 00 hr 59 min 15 sec)
Heartbeat CPU 0 instructions: 170000001 cycles: 60346253 heartbeat IPC: 2.401 cumulative IPC: 2.508 (Simulation time: 01 hr 03 min 59 sec)
Heartbeat CPU 0 instructions: 180000001 cycles: 63801912 heartbeat IPC: 2.894 cumulative IPC: 2.534 (Simulation time: 01 hr 08 min 21 sec)
Heartbeat CPU 0 instructions: 190000002 cycles: 67378342 heartbeat IPC: 2.796 cumulative IPC: 2.551 (Simulation time: 01 hr 12 min 51 sec)
Heartbeat CPU 0 instructions: 200000002 cycles: 71148232 heartbeat IPC: 2.653 cumulative IPC: 2.558 (Simulation time: 01 hr 17 min 23 sec)
Heartbeat CPU 0 instructions: 210000000 cycles: 74783288 heartbeat IPC: 2.751 cumulative IPC: 2.569 (Simulation time: 01 hr 21 min 48 sec)
Heartbeat CPU 0 instructions: 220000001 cycles: 78650658 heartbeat IPC: 2.586 cumulative IPC: 2.57 (Simulation time: 01 hr 26 min 22 sec)
Heartbeat CPU 0 instructions: 230000002 cycles: 82486365 heartbeat IPC: 2.607 cumulative IPC: 2.572 (Simulation time: 01 hr 30 min 56 sec)
Heartbeat CPU 0 instructions: 240000001 cycles: 86689074 heartbeat IPC: 2.379 cumulative IPC: 2.561 (Simulation time: 01 hr 35 min 43 sec)
Heartbeat CPU 0 instructions: 250000003 cycles: 91247853 heartbeat IPC: 2.194 cumulative IPC: 2.54 (Simulation time: 01 hr 40 min 37 sec)
Heartbeat CPU 0 instructions: 260000000 cycles: 95041045 heartbeat IPC: 2.636 cumulative IPC: 2.544 (Simulation time: 01 hr 45 min 10 sec)
Heartbeat CPU 0 instructions: 270000003 cycles: 101753368 heartbeat IPC: 1.49 cumulative IPC: 2.465 (Simulation time: 01 hr 51 min 36 sec)
Heartbeat CPU 0 instructions: 280000000 cycles: 113076656 heartbeat IPC: 0.8831 cumulative IPC: 2.287 (Simulation time: 02 hr 01 min 02 sec)
Heartbeat CPU 0 instructions: 290000000 cycles: 123113680 heartbeat IPC: 0.9963 cumulative IPC: 2.17 (Simulation time: 02 hr 09 min 47 sec)
Heartbeat CPU 0 instructions: 300000003 cycles: 130489941 heartbeat IPC: 1.356 cumulative IPC: 2.119 (Simulation time: 02 hr 17 min 03 sec)
Heartbeat CPU 0 instructions: 310000004 cycles: 141837980 heartbeat IPC: 0.8812 cumulative IPC: 2.01 (Simulation time: 02 hr 26 min 48 sec)
Heartbeat CPU 0 instructions: 320000004 cycles: 146952634 heartbeat IPC: 1.955 cumulative IPC: 2.008 (Simulation time: 02 hr 32 min 21 sec)
Heartbeat CPU 0 instructions: 330000000 cycles: 151016461 heartbeat IPC: 2.461 cumulative IPC: 2.021 (Simulation time: 02 hr 37 min 12 sec)
Heartbeat CPU 0 instructions: 340000001 cycles: 155259087 heartbeat IPC: 2.357 cumulative IPC: 2.031 (Simulation time: 02 hr 42 min 05 sec)
Heartbeat CPU 0 instructions: 350000004 cycles: 159652715 heartbeat IPC: 2.276 cumulative IPC: 2.039 (Simulation time: 02 hr 47 min 15 sec)
Heartbeat CPU 0 instructions: 360000003 cycles: 163767457 heartbeat IPC: 2.43 cumulative IPC: 2.049 (Simulation time: 02 hr 52 min 06 sec)
Heartbeat CPU 0 instructions: 370000001 cycles: 167792770 heartbeat IPC: 2.484 cumulative IPC: 2.061 (Simulation time: 02 hr 56 min 54 sec)
Heartbeat CPU 0 instructions: 380000004 cycles: 171682187 heartbeat IPC: 2.571 cumulative IPC: 2.073 (Simulation time: 03 hr 01 min 40 sec)
Heartbeat CPU 0 instructions: 390000002 cycles: 175783334 heartbeat IPC: 2.438 cumulative IPC: 2.082 (Simulation time: 03 hr 06 min 36 sec)
Heartbeat CPU 0 instructions: 400000000 cycles: 180137991 heartbeat IPC: 2.296 cumulative IPC: 2.088 (Simulation time: 03 hr 11 min 36 sec)
Heartbeat CPU 0 instructions: 410000000 cycles: 187617441 heartbeat IPC: 1.337 cumulative IPC: 2.056 (Simulation time: 03 hr 18 min 38 sec)
Heartbeat CPU 0 instructions: 420000003 cycles: 198736910 heartbeat IPC: 0.8993 cumulative IPC: 1.987 (Simulation time: 03 hr 28 min 02 sec)
Heartbeat CPU 0 instructions: 430000000 cycles: 206242960 heartbeat IPC: 1.332 cumulative IPC: 1.961 (Simulation time: 03 hr 35 min 22 sec)
Heartbeat CPU 0 instructions: 440000004 cycles: 213008907 heartbeat IPC: 1.478 cumulative IPC: 1.945 (Simulation time: 03 hr 42 min 10 sec)
Heartbeat CPU 0 instructions: 450000000 cycles: 219640239 heartbeat IPC: 1.508 cumulative IPC: 1.931 (Simulation time: 03 hr 48 min 51 sec)
Heartbeat CPU 0 instructions: 460000002 cycles: 230884987 heartbeat IPC: 0.8893 cumulative IPC: 1.877 (Simulation time: 03 hr 58 min 28 sec)
Heartbeat CPU 0 instructions: 470000003 cycles: 240540244 heartbeat IPC: 1.036 cumulative IPC: 1.842 (Simulation time: 04 hr 07 min 03 sec)
Heartbeat CPU 0 instructions: 480000003 cycles: 244819384 heartbeat IPC: 2.337 cumulative IPC: 1.851 (Simulation time: 04 hr 12 min 03 sec)
Heartbeat CPU 0 instructions: 490000001 cycles: 249492580 heartbeat IPC: 2.14 cumulative IPC: 1.857 (Simulation time: 04 hr 17 min 14 sec)
Heartbeat CPU 0 instructions: 500000002 cycles: 253954019 heartbeat IPC: 2.241 cumulative IPC: 1.864 (Simulation time: 04 hr 22 min 18 sec)
Heartbeat CPU 0 instructions: 510000000 cycles: 258205950 heartbeat IPC: 2.352 cumulative IPC: 1.872 (Simulation time: 04 hr 27 min 14 sec)
Heartbeat CPU 0 instructions: 520000000 cycles: 262629482 heartbeat IPC: 2.261 cumulative IPC: 1.879 (Simulation time: 04 hr 32 min 19 sec)
Heartbeat CPU 0 instructions: 530000001 cycles: 273761007 heartbeat IPC: 0.8983 cumulative IPC: 1.837 (Simulation time: 04 hr 41 min 38 sec)
Heartbeat CPU 0 instructions: 540000000 cycles: 284936948 heartbeat IPC: 0.8948 cumulative IPC: 1.799 (Simulation time: 04 hr 51 min 12 sec)
Heartbeat CPU 0 instructions: 550000004 cycles: 297411208 heartbeat IPC: 0.8017 cumulative IPC: 1.755 (Simulation time: 05 hr 01 min 27 sec)
Heartbeat CPU 0 instructions: 560000004 cycles: 301733990 heartbeat IPC: 2.313 cumulative IPC: 1.763 (Simulation time: 05 hr 06 min 22 sec)
Heartbeat CPU 0 instructions: 570000001 cycles: 304862519 heartbeat IPC: 3.196 cumulative IPC: 1.779 (Simulation time: 05 hr 10 min 38 sec)
Heartbeat CPU 0 instructions: 580000003 cycles: 308403912 heartbeat IPC: 2.824 cumulative IPC: 1.791 (Simulation time: 05 hr 15 min 05 sec)
Heartbeat CPU 0 instructions: 590000002 cycles: 312028949 heartbeat IPC: 2.759 cumulative IPC: 1.803 (Simulation time: 05 hr 19 min 39 sec)
Heartbeat CPU 0 instructions: 600000003 cycles: 315095383 heartbeat IPC: 3.261 cumulative IPC: 1.818 (Simulation time: 05 hr 23 min 57 sec)
Heartbeat CPU 0 instructions: 610000001 cycles: 318604783 heartbeat IPC: 2.849 cumulative IPC: 1.829 (Simulation time: 05 hr 28 min 29 sec)
Heartbeat CPU 0 instructions: 620000000 cycles: 322620858 heartbeat IPC: 2.49 cumulative IPC: 1.838 (Simulation time: 05 hr 33 min 12 sec)
Heartbeat CPU 0 instructions: 630000002 cycles: 325987533 heartbeat IPC: 2.97 cumulative IPC: 1.85 (Simulation time: 05 hr 37 min 32 sec)
Heartbeat CPU 0 instructions: 640000004 cycles: 329995655 heartbeat IPC: 2.495 cumulative IPC: 1.858 (Simulation time: 05 hr 42 min 37 sec)
Heartbeat CPU 0 instructions: 650000001 cycles: 333816102 heartbeat IPC: 2.617 cumulative IPC: 1.867 (Simulation time: 05 hr 47 min 40 sec)
Simulation finished CPU 0 instructions: 600000001 cycles: 321316041 cumulative IPC: 1.867 (Simulation time: 05 hr 47 min 40 sec)
Simulation complete CPU 0 instructions: 600000001 cycles: 321316041 cumulative IPC: 1.867 (Simulation time: 05 hr 47 min 40 sec)

ChampSim completed all CPUs

=== Simulation ===
CPU 0 runs traces/400.perlbench-50B.champsimtrace.xz
Region of Interest Statistics

CPU 0 cumulative IPC: 1.867 instructions: 600000001 cycles: 321316041
CPU 0 Branch Prediction Accuracy: 96.2% MPKI: 7.839 Average ROB Occupancy at Mispredict: 43.21
Branch type MPKI
BRANCH_DIRECT_JUMP: 0.0176
BRANCH_INDIRECT: 0.38
BRANCH_CONDITIONAL: 6.99
BRANCH_DIRECT_CALL: 0.0067
BRANCH_INDIRECT_CALL: 0.431
BRANCH_RETURN: 0.0161

LLC TOTAL        ACCESS:     890294 HIT:     381831 MISS:     508463
LLC LOAD         ACCESS:     377554 HIT:     153320 MISS:     224234
LLC RFO          ACCESS:      32939 HIT:      12347 MISS:      20592
LLC PREFETCH     ACCESS:     377554 HIT:     134407 MISS:     243147
LLC WRITE        ACCESS:      84050 HIT:      76516 MISS:       7534
LLC TRANSLATION  ACCESS:      18197 HIT:       5241 MISS:      12956
LLC PREFETCH REQUESTED:     377554 ISSUED:     377554 USEFUL:      83722 USELESS:     103508
LLC AVERAGE MISS LATENCY: 553.6 cycles
cpu0_DTLB TOTAL        ACCESS:  146476260 HIT:  145174185 MISS:    1302075
cpu0_DTLB LOAD         ACCESS:  146476260 HIT:  145174185 MISS:    1302075
cpu0_DTLB RFO          ACCESS:          0 HIT:          0 MISS:          0
cpu0_DTLB PREFETCH     ACCESS:          0 HIT:          0 MISS:          0
cpu0_DTLB WRITE        ACCESS:          0 HIT:          0 MISS:          0
cpu0_DTLB TRANSLATION  ACCESS:          0 HIT:          0 MISS:          0
cpu0_DTLB PREFETCH REQUESTED:          0 ISSUED:          0 USEFUL:          0 USELESS:          0
cpu0_DTLB AVERAGE MISS LATENCY: 13.15 cycles
cpu0_ITLB TOTAL        ACCESS:    8986511 HIT:    8801783 MISS:     184728
cpu0_ITLB LOAD         ACCESS:    8986511 HIT:    8801783 MISS:     184728
cpu0_ITLB RFO          ACCESS:          0 HIT:          0 MISS:          0
cpu0_ITLB PREFETCH     ACCESS:          0 HIT:          0 MISS:          0
cpu0_ITLB WRITE        ACCESS:          0 HIT:          0 MISS:          0
cpu0_ITLB TRANSLATION  ACCESS:          0 HIT:          0 MISS:          0
cpu0_ITLB PREFETCH REQUESTED:          0 ISSUED:          0 USEFUL:          0 USELESS:          0
cpu0_ITLB AVERAGE MISS LATENCY: 3.893 cycles
cpu0_L1D TOTAL        ACCESS:  193304525 HIT:  190461967 MISS:    2842558
cpu0_L1D LOAD         ACCESS:  107457534 HIT:  105120350 MISS:    2337184
cpu0_L1D RFO          ACCESS:          0 HIT:          0 MISS:          0
cpu0_L1D PREFETCH     ACCESS:          0 HIT:          0 MISS:          0
cpu0_L1D WRITE        ACCESS:   85818462 HIT:   85339606 MISS:     478856
cpu0_L1D TRANSLATION  ACCESS:      28529 HIT:       2011 MISS:      26518
cpu0_L1D PREFETCH REQUESTED:          0 ISSUED:          0 USEFUL:          0 USELESS:          0
cpu0_L1D AVERAGE MISS LATENCY: 58.86 cycles
cpu0_L1I TOTAL        ACCESS:   10421084 HIT:    8658402 MISS:    1762682
cpu0_L1I LOAD         ACCESS:   10421084 HIT:    8658402 MISS:    1762682
cpu0_L1I RFO          ACCESS:          0 HIT:          0 MISS:          0
cpu0_L1I PREFETCH     ACCESS:          0 HIT:          0 MISS:          0
cpu0_L1I WRITE        ACCESS:          0 HIT:          0 MISS:          0
cpu0_L1I TRANSLATION  ACCESS:          0 HIT:          0 MISS:          0
cpu0_L1I PREFETCH REQUESTED:          0 ISSUED:          0 USEFUL:          0 USELESS:          0
cpu0_L1I AVERAGE MISS LATENCY: 11.44 cycles
cpu0_L2C TOTAL        ACCESS:    3232384 HIT:    2802788 MISS:     429596
cpu0_L2C LOAD         ACCESS:    2710096 HIT:    2332542 MISS:     377554
cpu0_L2C RFO          ACCESS:     133263 HIT:     100324 MISS:      32939
cpu0_L2C PREFETCH     ACCESS:          0 HIT:          0 MISS:          0
cpu0_L2C WRITE        ACCESS:     362574 HIT:     361668 MISS:        906
cpu0_L2C TRANSLATION  ACCESS:      26451 HIT:       8254 MISS:      18197
cpu0_L2C PREFETCH REQUESTED:          0 ISSUED:          0 USEFUL:          0 USELESS:          0
cpu0_L2C AVERAGE MISS LATENCY: 385.8 cycles
cpu0_STLB TOTAL        ACCESS:    1008372 HIT:     981676 MISS:      26696
cpu0_STLB LOAD         ACCESS:    1008372 HIT:     981676 MISS:      26696
cpu0_STLB RFO          ACCESS:          0 HIT:          0 MISS:          0
cpu0_STLB PREFETCH     ACCESS:          0 HIT:          0 MISS:          0
cpu0_STLB WRITE        ACCESS:          0 HIT:          0 MISS:          0
cpu0_STLB TRANSLATION  ACCESS:          0 HIT:          0 MISS:          0
cpu0_STLB PREFETCH REQUESTED:          0 ISSUED:          0 USEFUL:          0 USELESS:          0
cpu0_STLB AVERAGE MISS LATENCY: 426.3 cycles

DRAM Statistics

Channel 0 RQ ROW_BUFFER_HIT:      80047
  ROW_BUFFER_MISS:     349522
 AVG DBUS CONGESTED CYCLE: 3.875
WQ ROW_BUFFER_HIT: Channel 0 
  ROW_BUFFER_MISS:       6994
  FULL:      45523
