WARNING: physical memory size is smaller than virtual memory size.

*** ChampSim Multicore Out-of-Order Simulator ***
Warmup Instructions: 50000000
Simulation Instructions: 600000000
Number of CPUs: 1
Page size: 4096

Off-chip DRAM Size: 4 GiB Channels: 1 Width: 64-bit Data Race: 3200 MT/s
Heartbeat CPU 0 instructions: 10000000 cycles: 2500061 heartbeat IPC: 4 cumulative IPC: 4 (Simulation time: 00 hr 03 min 27 sec)
Heartbeat CPU 0 instructions: 20000000 cycles: 5000061 heartbeat IPC: 4 cumulative IPC: 4 (Simulation time: 00 hr 06 min 49 sec)
Heartbeat CPU 0 instructions: 30000000 cycles: 7500061 heartbeat IPC: 4 cumulative IPC: 4 (Simulation time: 00 hr 10 min 10 sec)
Heartbeat CPU 0 instructions: 40000000 cycles: 10000061 heartbeat IPC: 4 cumulative IPC: 4 (Simulation time: 00 hr 13 min 34 sec)
Heartbeat CPU 0 instructions: 50000000 cycles: 12500061 heartbeat IPC: 4 cumulative IPC: 4 (Simulation time: 00 hr 16 min 58 sec)
Warmup finished CPU 0 instructions: 50000000 cycles: 12500062 cumulative IPC: 4 (Simulation time: 00 hr 16 min 58 sec)
Warmup complete CPU 0 instructions: 50000000 cycles: 12500062 cumulative IPC: 4 (Simulation time: 00 hr 16 min 58 sec)
Heartbeat CPU 0 instructions: 60000002 cycles: 16906761 heartbeat IPC: 2.269 cumulative IPC: 2.269 (Simulation time: 00 hr 21 min 59 sec)
Heartbeat CPU 0 instructions: 70000003 cycles: 21887096 heartbeat IPC: 2.008 cumulative IPC: 2.131 (Simulation time: 00 hr 27 min 14 sec)
Heartbeat CPU 0 instructions: 80000001 cycles: 27228553 heartbeat IPC: 1.872 cumulative IPC: 2.037 (Simulation time: 00 hr 32 min 46 sec)
Heartbeat CPU 0 instructions: 90000000 cycles: 31524776 heartbeat IPC: 2.328 cumulative IPC: 2.103 (Simulation time: 00 hr 37 min 38 sec)
Heartbeat CPU 0 instructions: 100000003 cycles: 36376281 heartbeat IPC: 2.061 cumulative IPC: 2.094 (Simulation time: 00 hr 42 min 48 sec)
Heartbeat CPU 0 instructions: 110000002 cycles: 41243779 heartbeat IPC: 2.054 cumulative IPC: 2.087 (Simulation time: 00 hr 48 min 11 sec)
Heartbeat CPU 0 instructions: 120000001 cycles: 46237023 heartbeat IPC: 2.003 cumulative IPC: 2.075 (Simulation time: 00 hr 53 min 28 sec)
Heartbeat CPU 0 instructions: 130000003 cycles: 50803754 heartbeat IPC: 2.19 cumulative IPC: 2.089 (Simulation time: 00 hr 58 min 26 sec)
Heartbeat CPU 0 instructions: 140000002 cycles: 55691442 heartbeat IPC: 2.046 cumulative IPC: 2.084 (Simulation time: 01 hr 03 min 41 sec)
Heartbeat CPU 0 instructions: 150000001 cycles: 60355909 heartbeat IPC: 2.144 cumulative IPC: 2.09 (Simulation time: 01 hr 08 min 43 sec)
Heartbeat CPU 0 instructions: 160000000 cycles: 64991741 heartbeat IPC: 2.157 cumulative IPC: 2.096 (Simulation time: 01 hr 13 min 47 sec)
Heartbeat CPU 0 instructions: 170000000 cycles: 70320354 heartbeat IPC: 1.877 cumulative IPC: 2.075 (Simulation time: 01 hr 19 min 11 sec)
Heartbeat CPU 0 instructions: 180000001 cycles: 76037682 heartbeat IPC: 1.749 cumulative IPC: 2.046 (Simulation time: 01 hr 24 min 52 sec)
Heartbeat CPU 0 instructions: 190000002 cycles: 80505582 heartbeat IPC: 2.238 cumulative IPC: 2.059 (Simulation time: 01 hr 29 min 52 sec)
Heartbeat CPU 0 instructions: 200000002 cycles: 85404134 heartbeat IPC: 2.041 cumulative IPC: 2.057 (Simulation time: 01 hr 35 min 07 sec)
Heartbeat CPU 0 instructions: 210000000 cycles: 90405324 heartbeat IPC: 2 cumulative IPC: 2.054 (Simulation time: 01 hr 40 min 25 sec)
Heartbeat CPU 0 instructions: 220000001 cycles: 95326497 heartbeat IPC: 2.032 cumulative IPC: 2.052 (Simulation time: 01 hr 45 min 35 sec)
Heartbeat CPU 0 instructions: 230000002 cycles: 100569975 heartbeat IPC: 1.907 cumulative IPC: 2.044 (Simulation time: 01 hr 50 min 59 sec)
Heartbeat CPU 0 instructions: 240000001 cycles: 105531446 heartbeat IPC: 2.016 cumulative IPC: 2.042 (Simulation time: 01 hr 56 min 15 sec)
Heartbeat CPU 0 instructions: 250000003 cycles: 110705515 heartbeat IPC: 1.933 cumulative IPC: 2.037 (Simulation time: 02 hr 01 min 32 sec)
Heartbeat CPU 0 instructions: 260000001 cycles: 115564354 heartbeat IPC: 2.058 cumulative IPC: 2.038 (Simulation time: 02 hr 06 min 45 sec)
Heartbeat CPU 0 instructions: 270000000 cycles: 123270357 heartbeat IPC: 1.298 cumulative IPC: 1.986 (Simulation time: 02 hr 13 min 49 sec)
Heartbeat CPU 0 instructions: 280000000 cycles: 135660223 heartbeat IPC: 0.8071 cumulative IPC: 1.867 (Simulation time: 02 hr 24 min 01 sec)
Heartbeat CPU 0 instructions: 290000001 cycles: 147477247 heartbeat IPC: 0.8462 cumulative IPC: 1.778 (Simulation time: 02 hr 34 min 11 sec)
Heartbeat CPU 0 instructions: 300000003 cycles: 155411678 heartbeat IPC: 1.26 cumulative IPC: 1.749 (Simulation time: 02 hr 41 min 52 sec)
Heartbeat CPU 0 instructions: 310000004 cycles: 167492898 heartbeat IPC: 0.8277 cumulative IPC: 1.677 (Simulation time: 02 hr 52 min 05 sec)
Heartbeat CPU 0 instructions: 320000004 cycles: 173481324 heartbeat IPC: 1.67 cumulative IPC: 1.677 (Simulation time: 02 hr 58 min 15 sec)
Heartbeat CPU 0 instructions: 330000000 cycles: 178776309 heartbeat IPC: 1.889 cumulative IPC: 1.684 (Simulation time: 03 hr 03 min 48 sec)
Heartbeat CPU 0 instructions: 340000001 cycles: 183987489 heartbeat IPC: 1.919 cumulative IPC: 1.691 (Simulation time: 03 hr 09 min 17 sec)
Heartbeat CPU 0 instructions: 350000000 cycles: 189281445 heartbeat IPC: 1.889 cumulative IPC: 1.697 (Simulation time: 03 hr 15 min 04 sec)
Heartbeat CPU 0 instructions: 360000003 cycles: 194211851 heartbeat IPC: 2.028 cumulative IPC: 1.706 (Simulation time: 03 hr 20 min 25 sec)
Heartbeat CPU 0 instructions: 370000001 cycles: 199019211 heartbeat IPC: 2.08 cumulative IPC: 1.716 (Simulation time: 03 hr 25 min 38 sec)
Heartbeat CPU 0 instructions: 380000004 cycles: 204070361 heartbeat IPC: 1.98 cumulative IPC: 1.723 (Simulation time: 03 hr 31 min 02 sec)
Heartbeat CPU 0 instructions: 390000002 cycles: 209132337 heartbeat IPC: 1.976 cumulative IPC: 1.729 (Simulation time: 03 hr 36 min 27 sec)
Heartbeat CPU 0 instructions: 400000000 cycles: 214171656 heartbeat IPC: 1.984 cumulative IPC: 1.735 (Simulation time: 03 hr 41 min 48 sec)
Heartbeat CPU 0 instructions: 410000000 cycles: 221768411 heartbeat IPC: 1.316 cumulative IPC: 1.72 (Simulation time: 03 hr 48 min 58 sec)
Heartbeat CPU 0 instructions: 420000001 cycles: 233508708 heartbeat IPC: 0.8518 cumulative IPC: 1.674 (Simulation time: 03 hr 58 min 47 sec)
Heartbeat CPU 0 instructions: 430000000 cycles: 241433472 heartbeat IPC: 1.262 cumulative IPC: 1.66 (Simulation time: 04 hr 06 min 26 sec)
Heartbeat CPU 0 instructions: 440000002 cycles: 249935847 heartbeat IPC: 1.176 cumulative IPC: 1.643 (Simulation time: 04 hr 14 min 19 sec)
Heartbeat CPU 0 instructions: 450000000 cycles: 257633493 heartbeat IPC: 1.299 cumulative IPC: 1.632 (Simulation time: 04 hr 21 min 41 sec)
Heartbeat CPU 0 instructions: 460000002 cycles: 271078895 heartbeat IPC: 0.7437 cumulative IPC: 1.586 (Simulation time: 04 hr 33 min 00 sec)
Heartbeat CPU 0 instructions: 470000000 cycles: 281988229 heartbeat IPC: 0.9166 cumulative IPC: 1.559 (Simulation time: 04 hr 42 min 25 sec)
Heartbeat CPU 0 instructions: 480000000 cycles: 287548557 heartbeat IPC: 1.798 cumulative IPC: 1.563 (Simulation time: 04 hr 48 min 08 sec)
Heartbeat CPU 0 instructions: 490000001 cycles: 293055234 heartbeat IPC: 1.816 cumulative IPC: 1.568 (Simulation time: 04 hr 53 min 50 sec)
Heartbeat CPU 0 instructions: 500000002 cycles: 298258883 heartbeat IPC: 1.922 cumulative IPC: 1.575 (Simulation time: 04 hr 59 min 29 sec)
Heartbeat CPU 0 instructions: 510000000 cycles: 303302096 heartbeat IPC: 1.983 cumulative IPC: 1.582 (Simulation time: 05 hr 04 min 52 sec)
Heartbeat CPU 0 instructions: 520000000 cycles: 308351557 heartbeat IPC: 1.98 cumulative IPC: 1.589 (Simulation time: 05 hr 10 min 14 sec)
Heartbeat CPU 0 instructions: 530000001 cycles: 319512307 heartbeat IPC: 0.896 cumulative IPC: 1.563 (Simulation time: 05 hr 19 min 42 sec)
Heartbeat CPU 0 instructions: 540000000 cycles: 331648779 heartbeat IPC: 0.824 cumulative IPC: 1.535 (Simulation time: 05 hr 29 min 56 sec)
Heartbeat CPU 0 instructions: 550000002 cycles: 346182389 heartbeat IPC: 0.6881 cumulative IPC: 1.498 (Simulation time: 05 hr 41 min 35 sec)
Heartbeat CPU 0 instructions: 560000004 cycles: 351291762 heartbeat IPC: 1.957 cumulative IPC: 1.505 (Simulation time: 05 hr 47 min 05 sec)
Heartbeat CPU 0 instructions: 570000001 cycles: 355705321 heartbeat IPC: 2.266 cumulative IPC: 1.515 (Simulation time: 05 hr 52 min 07 sec)
Heartbeat CPU 0 instructions: 580000003 cycles: 359943100 heartbeat IPC: 2.36 cumulative IPC: 1.525 (Simulation time: 05 hr 57 min 00 sec)
Heartbeat CPU 0 instructions: 590000001 cycles: 364842105 heartbeat IPC: 2.041 cumulative IPC: 1.533 (Simulation time: 06 hr 02 min 18 sec)
Heartbeat CPU 0 instructions: 600000003 cycles: 369481134 heartbeat IPC: 2.156 cumulative IPC: 1.541 (Simulation time: 06 hr 07 min 31 sec)
Heartbeat CPU 0 instructions: 610000001 cycles: 374339823 heartbeat IPC: 2.058 cumulative IPC: 1.548 (Simulation time: 06 hr 12 min 46 sec)
Heartbeat CPU 0 instructions: 620000000 cycles: 379403986 heartbeat IPC: 1.975 cumulative IPC: 1.554 (Simulation time: 06 hr 18 min 11 sec)
Heartbeat CPU 0 instructions: 630000002 cycles: 383648563 heartbeat IPC: 2.356 cumulative IPC: 1.563 (Simulation time: 06 hr 23 min 10 sec)
Heartbeat CPU 0 instructions: 640000004 cycles: 388966849 heartbeat IPC: 1.88 cumulative IPC: 1.567 (Simulation time: 06 hr 28 min 44 sec)
Heartbeat CPU 0 instructions: 650000001 cycles: 393729851 heartbeat IPC: 2.1 cumulative IPC: 1.574 (Simulation time: 06 hr 34 min 00 sec)
Simulation finished CPU 0 instructions: 600000001 cycles: 381229790 cumulative IPC: 1.574 (Simulation time: 06 hr 34 min 00 sec)
Simulation complete CPU 0 instructions: 600000001 cycles: 381229790 cumulative IPC: 1.574 (Simulation time: 06 hr 34 min 00 sec)

ChampSim completed all CPUs

=== Simulation ===
CPU 0 runs traces/400.perlbench-50B.champsimtrace.xz
Region of Interest Statistics

CPU 0 cumulative IPC: 1.574 instructions: 600000001 cycles: 381229790
CPU 0 Branch Prediction Accuracy: 93.83% MPKI: 12.71 Average ROB Occupancy at Mispredict: 29.44
Branch type MPKI
BRANCH_DIRECT_JUMP: 0.0176
BRANCH_INDIRECT: 0.38
BRANCH_CONDITIONAL: 11.9
BRANCH_DIRECT_CALL: 0.0067
BRANCH_INDIRECT_CALL: 0.431
BRANCH_RETURN: 0.0161

LLC TOTAL        ACCESS:     569164 HIT:     196200 MISS:     372964
LLC LOAD         ACCESS:     377806 HIT:     110467 MISS:     267339
LLC RFO          ACCESS:      32852 HIT:      10315 MISS:      22537
LLC PREFETCH     ACCESS:      55869 HIT:      37549 MISS:      18320
LLC WRITE        ACCESS:      84515 HIT:      36285 MISS:      48230
LLC TRANSLATION  ACCESS:      18122 HIT:       1584 MISS:      16538
LLC PREFETCH REQUESTED:      55869 ISSUED:      55869 USEFUL:       8418 USELESS:       6401
LLC AVERAGE MISS LATENCY: 479.3 cycles
cpu0_DTLB TOTAL        ACCESS:  156735717 HIT:  155434538 MISS:    1301179
cpu0_DTLB LOAD         ACCESS:  156735717 HIT:  155434538 MISS:    1301179
cpu0_DTLB RFO          ACCESS:          0 HIT:          0 MISS:          0
cpu0_DTLB PREFETCH     ACCESS:          0 HIT:          0 MISS:          0
cpu0_DTLB WRITE        ACCESS:          0 HIT:          0 MISS:          0
cpu0_DTLB TRANSLATION  ACCESS:          0 HIT:          0 MISS:          0
cpu0_DTLB PREFETCH REQUESTED:          0 ISSUED:          0 USEFUL:          0 USELESS:          0
cpu0_DTLB AVERAGE MISS LATENCY: 14.26 cycles
cpu0_ITLB TOTAL        ACCESS:    8934000 HIT:    8735161 MISS:     198839
cpu0_ITLB LOAD         ACCESS:    8934000 HIT:    8735161 MISS:     198839
cpu0_ITLB RFO          ACCESS:          0 HIT:          0 MISS:          0
cpu0_ITLB PREFETCH     ACCESS:          0 HIT:          0 MISS:          0
cpu0_ITLB WRITE        ACCESS:          0 HIT:          0 MISS:          0
cpu0_ITLB TRANSLATION  ACCESS:          0 HIT:          0 MISS:          0
cpu0_ITLB PREFETCH REQUESTED:          0 ISSUED:          0 USEFUL:          0 USELESS:          0
cpu0_ITLB AVERAGE MISS LATENCY: 3.641 cycles
cpu0_L1D TOTAL        ACCESS:  203606769 HIT:  200760083 MISS:    2846686
cpu0_L1D LOAD         ACCESS:  117930320 HIT:  115594026 MISS:    2336294
cpu0_L1D RFO          ACCESS:          0 HIT:          0 MISS:          0
cpu0_L1D PREFETCH     ACCESS:          0 HIT:          0 MISS:          0
cpu0_L1D WRITE        ACCESS:   85647910 HIT:   85164069 MISS:     483841
cpu0_L1D TRANSLATION  ACCESS:      28539 HIT:       1988 MISS:      26551
cpu0_L1D PREFETCH REQUESTED:          0 ISSUED:          0 USEFUL:          0 USELESS:          0
cpu0_L1D AVERAGE MISS LATENCY: 61.27 cycles
cpu0_L1I TOTAL        ACCESS:   10372575 HIT:    8573484 MISS:    1799091
cpu0_L1I LOAD         ACCESS:   10372575 HIT:    8573484 MISS:    1799091
cpu0_L1I RFO          ACCESS:          0 HIT:          0 MISS:          0
cpu0_L1I PREFETCH     ACCESS:          0 HIT:          0 MISS:          0
cpu0_L1I WRITE        ACCESS:          0 HIT:          0 MISS:          0
cpu0_L1I TRANSLATION  ACCESS:          0 HIT:          0 MISS:          0
cpu0_L1I PREFETCH REQUESTED:          0 ISSUED:          0 USEFUL:          0 USELESS:          0
cpu0_L1I AVERAGE MISS LATENCY: 14.15 cycles
cpu0_L2C TOTAL        ACCESS:    3235409 HIT:    2805678 MISS:     429731
cpu0_L2C LOAD         ACCESS:    2711755 HIT:    2333949 MISS:     377806
cpu0_L2C RFO          ACCESS:     133719 HIT:     100867 MISS:      32852
cpu0_L2C PREFETCH     ACCESS:          0 HIT:          0 MISS:          0
cpu0_L2C WRITE        ACCESS:     363467 HIT:     362516 MISS:        951
cpu0_L2C TRANSLATION  ACCESS:      26468 HIT:       8346 MISS:      18122
cpu0_L2C PREFETCH REQUESTED:          0 ISSUED:          0 USEFUL:          0 USELESS:          0
cpu0_L2C AVERAGE MISS LATENCY: 413.9 cycles
cpu0_STLB TOTAL        ACCESS:    1009319 HIT:     982628 MISS:      26691
cpu0_STLB LOAD         ACCESS:    1009319 HIT:     982628 MISS:      26691
cpu0_STLB RFO          ACCESS:          0 HIT:          0 MISS:          0
cpu0_STLB PREFETCH     ACCESS:          0 HIT:          0 MISS:          0
cpu0_STLB WRITE        ACCESS:          0 HIT:          0 MISS:          0
cpu0_STLB TRANSLATION  ACCESS:          0 HIT:          0 MISS:          0
cpu0_STLB PREFETCH REQUESTED:          0 ISSUED:          0 USEFUL:          0 USELESS:          0
cpu0_STLB AVERAGE MISS LATENCY: 481.8 cycles

DRAM Statistics

Channel 0 RQ ROW_BUFFER_HIT:      53374
  ROW_BUFFER_MISS:     266942
 AVG DBUS CONGESTED CYCLE: 3.822
WQ ROW_BUFFER_HIT: Channel 0 
  ROW_BUFFER_MISS:       9629
  FULL:      39813
