WARNING: physical memory size is smaller than virtual memory size.

*** ChampSim Multicore Out-of-Order Simulator ***
Warmup Instructions: 50000000
Simulation Instructions: 600000000
Number of CPUs: 1
Page size: 4096

Off-chip DRAM Size: 4 GiB Channels: 1 Width: 64-bit Data Race: 3200 MT/s
Heartbeat CPU 0 instructions: 10000000 cycles: 2500061 heartbeat IPC: 4 cumulative IPC: 4 (Simulation time: 00 hr 03 min 33 sec)
Heartbeat CPU 0 instructions: 20000000 cycles: 5000061 heartbeat IPC: 4 cumulative IPC: 4 (Simulation time: 00 hr 07 min 07 sec)
Heartbeat CPU 0 instructions: 30000000 cycles: 7500061 heartbeat IPC: 4 cumulative IPC: 4 (Simulation time: 00 hr 10 min 38 sec)
Heartbeat CPU 0 instructions: 40000000 cycles: 10000061 heartbeat IPC: 4 cumulative IPC: 4 (Simulation time: 00 hr 14 min 24 sec)
Heartbeat CPU 0 instructions: 50000000 cycles: 12500061 heartbeat IPC: 4 cumulative IPC: 4 (Simulation time: 00 hr 17 min 55 sec)
Warmup finished CPU 0 instructions: 50000000 cycles: 12500062 cumulative IPC: 4 (Simulation time: 00 hr 17 min 55 sec)
Warmup complete CPU 0 instructions: 50000000 cycles: 12500062 cumulative IPC: 4 (Simulation time: 00 hr 17 min 55 sec)
Heartbeat CPU 0 instructions: 60000004 cycles: 15563959 heartbeat IPC: 3.264 cumulative IPC: 3.264 (Simulation time: 00 hr 22 min 19 sec)
Heartbeat CPU 0 instructions: 70000003 cycles: 18640133 heartbeat IPC: 3.251 cumulative IPC: 3.257 (Simulation time: 00 hr 26 min 39 sec)
Heartbeat CPU 0 instructions: 80000001 cycles: 21803470 heartbeat IPC: 3.161 cumulative IPC: 3.225 (Simulation time: 00 hr 31 min 01 sec)
Heartbeat CPU 0 instructions: 90000000 cycles: 24577554 heartbeat IPC: 3.605 cumulative IPC: 3.312 (Simulation time: 00 hr 35 min 12 sec)
Heartbeat CPU 0 instructions: 100000003 cycles: 27483428 heartbeat IPC: 3.441 cumulative IPC: 3.337 (Simulation time: 00 hr 39 min 23 sec)
Heartbeat CPU 0 instructions: 110000000 cycles: 30513178 heartbeat IPC: 3.301 cumulative IPC: 3.331 (Simulation time: 00 hr 43 min 38 sec)
Heartbeat CPU 0 instructions: 120000001 cycles: 33341734 heartbeat IPC: 3.535 cumulative IPC: 3.359 (Simulation time: 00 hr 47 min 51 sec)
Heartbeat CPU 0 instructions: 130000003 cycles: 36313527 heartbeat IPC: 3.365 cumulative IPC: 3.359 (Simulation time: 00 hr 52 min 06 sec)
Heartbeat CPU 0 instructions: 140000002 cycles: 39288806 heartbeat IPC: 3.361 cumulative IPC: 3.36 (Simulation time: 00 hr 56 min 25 sec)
Heartbeat CPU 0 instructions: 150000001 cycles: 42198279 heartbeat IPC: 3.437 cumulative IPC: 3.367 (Simulation time: 01 hr 00 min 39 sec)
Heartbeat CPU 0 instructions: 160000000 cycles: 45181708 heartbeat IPC: 3.352 cumulative IPC: 3.366 (Simulation time: 01 hr 04 min 57 sec)
Heartbeat CPU 0 instructions: 170000001 cycles: 48221499 heartbeat IPC: 3.29 cumulative IPC: 3.359 (Simulation time: 01 hr 09 min 19 sec)
Heartbeat CPU 0 instructions: 180000000 cycles: 51069177 heartbeat IPC: 3.512 cumulative IPC: 3.371 (Simulation time: 01 hr 13 min 38 sec)
Heartbeat CPU 0 instructions: 190000002 cycles: 53884391 heartbeat IPC: 3.552 cumulative IPC: 3.383 (Simulation time: 01 hr 17 min 56 sec)
Heartbeat CPU 0 instructions: 200000002 cycles: 56839212 heartbeat IPC: 3.384 cumulative IPC: 3.383 (Simulation time: 01 hr 22 min 15 sec)
Heartbeat CPU 0 instructions: 210000000 cycles: 59794149 heartbeat IPC: 3.384 cumulative IPC: 3.383 (Simulation time: 01 hr 26 min 34 sec)
Heartbeat CPU 0 instructions: 220000001 cycles: 62676760 heartbeat IPC: 3.469 cumulative IPC: 3.388 (Simulation time: 01 hr 30 min 49 sec)
Heartbeat CPU 0 instructions: 230000002 cycles: 65678696 heartbeat IPC: 3.331 cumulative IPC: 3.385 (Simulation time: 01 hr 35 min 09 sec)
Heartbeat CPU 0 instructions: 240000004 cycles: 68772190 heartbeat IPC: 3.233 cumulative IPC: 3.376 (Simulation time: 01 hr 39 min 29 sec)
Heartbeat CPU 0 instructions: 250000003 cycles: 71893358 heartbeat IPC: 3.204 cumulative IPC: 3.367 (Simulation time: 01 hr 43 min 47 sec)
Heartbeat CPU 0 instructions: 260000000 cycles: 74782224 heartbeat IPC: 3.462 cumulative IPC: 3.372 (Simulation time: 01 hr 48 min 03 sec)
Heartbeat CPU 0 instructions: 270000002 cycles: 80890774 heartbeat IPC: 1.637 cumulative IPC: 3.217 (Simulation time: 01 hr 54 min 24 sec)
Heartbeat CPU 0 instructions: 280000000 cycles: 90470239 heartbeat IPC: 1.044 cumulative IPC: 2.95 (Simulation time: 02 hr 03 min 23 sec)
Heartbeat CPU 0 instructions: 290000000 cycles: 98390780 heartbeat IPC: 1.263 cumulative IPC: 2.794 (Simulation time: 02 hr 11 min 17 sec)
Heartbeat CPU 0 instructions: 300000003 cycles: 103714598 heartbeat IPC: 1.878 cumulative IPC: 2.741 (Simulation time: 02 hr 17 min 36 sec)
Heartbeat CPU 0 instructions: 310000004 cycles: 112009959 heartbeat IPC: 1.205 cumulative IPC: 2.613 (Simulation time: 02 hr 25 min 56 sec)
Heartbeat CPU 0 instructions: 320000004 cycles: 115877192 heartbeat IPC: 2.586 cumulative IPC: 2.612 (Simulation time: 02 hr 31 min 07 sec)
Heartbeat CPU 0 instructions: 330000000 cycles: 119124152 heartbeat IPC: 3.08 cumulative IPC: 2.626 (Simulation time: 02 hr 35 min 43 sec)
Heartbeat CPU 0 instructions: 340000001 cycles: 122411941 heartbeat IPC: 3.042 cumulative IPC: 2.638 (Simulation time: 02 hr 40 min 19 sec)
Heartbeat CPU 0 instructions: 350000000 cycles: 125865213 heartbeat IPC: 2.896 cumulative IPC: 2.646 (Simulation time: 02 hr 45 min 04 sec)
Heartbeat CPU 0 instructions: 360000003 cycles: 129110371 heartbeat IPC: 3.082 cumulative IPC: 2.658 (Simulation time: 02 hr 49 min 40 sec)
Heartbeat CPU 0 instructions: 370000001 cycles: 132284072 heartbeat IPC: 3.151 cumulative IPC: 2.671 (Simulation time: 02 hr 54 min 15 sec)
Heartbeat CPU 0 instructions: 380000004 cycles: 135456990 heartbeat IPC: 3.152 cumulative IPC: 2.684 (Simulation time: 02 hr 58 min 52 sec)
Heartbeat CPU 0 instructions: 390000002 cycles: 138801734 heartbeat IPC: 2.99 cumulative IPC: 2.692 (Simulation time: 03 hr 03 min 33 sec)
Heartbeat CPU 0 instructions: 400000000 cycles: 142222678 heartbeat IPC: 2.923 cumulative IPC: 2.698 (Simulation time: 03 hr 08 min 15 sec)
Heartbeat CPU 0 instructions: 410000000 cycles: 148711594 heartbeat IPC: 1.541 cumulative IPC: 2.643 (Simulation time: 03 hr 15 min 03 sec)
Heartbeat CPU 0 instructions: 420000003 cycles: 157865765 heartbeat IPC: 1.092 cumulative IPC: 2.545 (Simulation time: 03 hr 23 min 49 sec)
Heartbeat CPU 0 instructions: 430000004 cycles: 163717028 heartbeat IPC: 1.709 cumulative IPC: 2.513 (Simulation time: 03 hr 30 min 30 sec)
Heartbeat CPU 0 instructions: 440000004 cycles: 168760161 heartbeat IPC: 1.983 cumulative IPC: 2.496 (Simulation time: 03 hr 36 min 36 sec)
Heartbeat CPU 0 instructions: 450000000 cycles: 173640091 heartbeat IPC: 2.049 cumulative IPC: 2.482 (Simulation time: 03 hr 42 min 36 sec)
Heartbeat CPU 0 instructions: 460000002 cycles: 181842837 heartbeat IPC: 1.219 cumulative IPC: 2.421 (Simulation time: 03 hr 50 min 49 sec)
Heartbeat CPU 0 instructions: 470000003 cycles: 189384291 heartbeat IPC: 1.326 cumulative IPC: 2.374 (Simulation time: 03 hr 58 min 34 sec)
Heartbeat CPU 0 instructions: 480000000 cycles: 192879870 heartbeat IPC: 2.861 cumulative IPC: 2.384 (Simulation time: 04 hr 03 min 20 sec)
Heartbeat CPU 0 instructions: 490000001 cycles: 196586743 heartbeat IPC: 2.698 cumulative IPC: 2.39 (Simulation time: 04 hr 08 min 14 sec)
Heartbeat CPU 0 instructions: 500000002 cycles: 200185900 heartbeat IPC: 2.778 cumulative IPC: 2.398 (Simulation time: 04 hr 13 min 04 sec)
Heartbeat CPU 0 instructions: 510000000 cycles: 203707053 heartbeat IPC: 2.84 cumulative IPC: 2.406 (Simulation time: 04 hr 17 min 53 sec)
Heartbeat CPU 0 instructions: 520000000 cycles: 207279663 heartbeat IPC: 2.799 cumulative IPC: 2.413 (Simulation time: 04 hr 22 min 45 sec)
Heartbeat CPU 0 instructions: 530000001 cycles: 216763625 heartbeat IPC: 1.054 cumulative IPC: 2.35 (Simulation time: 04 hr 31 min 39 sec)
Heartbeat CPU 0 instructions: 540000000 cycles: 225736051 heartbeat IPC: 1.115 cumulative IPC: 2.298 (Simulation time: 04 hr 40 min 20 sec)
Heartbeat CPU 0 instructions: 550000004 cycles: 235783674 heartbeat IPC: 0.9953 cumulative IPC: 2.239 (Simulation time: 04 hr 49 min 45 sec)
Heartbeat CPU 0 instructions: 560000004 cycles: 239448539 heartbeat IPC: 2.729 cumulative IPC: 2.247 (Simulation time: 04 hr 54 min 35 sec)
Heartbeat CPU 0 instructions: 570000002 cycles: 242285366 heartbeat IPC: 3.525 cumulative IPC: 2.263 (Simulation time: 04 hr 59 min 08 sec)
Heartbeat CPU 0 instructions: 580000000 cycles: 245269816 heartbeat IPC: 3.351 cumulative IPC: 2.277 (Simulation time: 05 hr 03 min 29 sec)
Heartbeat CPU 0 instructions: 590000001 cycles: 248248522 heartbeat IPC: 3.357 cumulative IPC: 2.291 (Simulation time: 05 hr 07 min 50 sec)
Heartbeat CPU 0 instructions: 600000003 cycles: 250986520 heartbeat IPC: 3.652 cumulative IPC: 2.306 (Simulation time: 05 hr 12 min 09 sec)
Heartbeat CPU 0 instructions: 610000001 cycles: 253923192 heartbeat IPC: 3.405 cumulative IPC: 2.32 (Simulation time: 05 hr 16 min 31 sec)
Heartbeat CPU 0 instructions: 620000002 cycles: 256945280 heartbeat IPC: 3.309 cumulative IPC: 2.332 (Simulation time: 05 hr 20 min 55 sec)
Heartbeat CPU 0 instructions: 630000002 cycles: 259825860 heartbeat IPC: 3.472 cumulative IPC: 2.345 (Simulation time: 05 hr 25 min 15 sec)
Heartbeat CPU 0 instructions: 640000004 cycles: 262912179 heartbeat IPC: 3.24 cumulative IPC: 2.356 (Simulation time: 05 hr 29 min 55 sec)
Heartbeat CPU 0 instructions: 650000001 cycles: 265671436 heartbeat IPC: 3.624 cumulative IPC: 2.37 (Simulation time: 05 hr 34 min 08 sec)
Simulation finished CPU 0 instructions: 600000001 cycles: 253171375 cumulative IPC: 2.37 (Simulation time: 05 hr 34 min 08 sec)
Simulation complete CPU 0 instructions: 600000001 cycles: 253171375 cumulative IPC: 2.37 (Simulation time: 05 hr 34 min 08 sec)

ChampSim completed all CPUs

=== Simulation ===
CPU 0 runs traces/400.perlbench-50B.champsimtrace.xz
Region of Interest Statistics

CPU 0 cumulative IPC: 2.37 instructions: 600000001 cycles: 253171375
CPU 0 Branch Prediction Accuracy: 98.73% MPKI: 2.62 Average ROB Occupancy at Mispredict: 85.9
Branch type MPKI
BRANCH_DIRECT_JUMP: 0.0176
BRANCH_INDIRECT: 0.38
BRANCH_CONDITIONAL: 1.77
BRANCH_DIRECT_CALL: 0.0067
BRANCH_INDIRECT_CALL: 0.431
BRANCH_RETURN: 0.0161

LLC TOTAL        ACCESS:     565886 HIT:     238092 MISS:     327794
LLC LOAD         ACCESS:     376626 HIT:     112556 MISS:     264070
LLC RFO          ACCESS:      32644 HIT:      12052 MISS:      20592
LLC PREFETCH     ACCESS:      54426 HIT:      24767 MISS:      29659
LLC WRITE        ACCESS:      83982 HIT:      82515 MISS:       1467
LLC TRANSLATION  ACCESS:      18208 HIT:       6202 MISS:      12006
LLC PREFETCH REQUESTED:      54426 ISSUED:      54426 USEFUL:      18723 USELESS:       6688
LLC AVERAGE MISS LATENCY: 616 cycles
cpu0_DTLB TOTAL        ACCESS:  134606558 HIT:  133259213 MISS:    1347345
cpu0_DTLB LOAD         ACCESS:  134606558 HIT:  133259213 MISS:    1347345
cpu0_DTLB RFO          ACCESS:          0 HIT:          0 MISS:          0
cpu0_DTLB PREFETCH     ACCESS:          0 HIT:          0 MISS:          0
cpu0_DTLB WRITE        ACCESS:          0 HIT:          0 MISS:          0
cpu0_DTLB TRANSLATION  ACCESS:          0 HIT:          0 MISS:          0
cpu0_DTLB PREFETCH REQUESTED:          0 ISSUED:          0 USEFUL:          0 USELESS:          0
cpu0_DTLB AVERAGE MISS LATENCY: 11.86 cycles
cpu0_ITLB TOTAL        ACCESS:    8983232 HIT:    8775169 MISS:     208063
cpu0_ITLB LOAD         ACCESS:    8983232 HIT:    8775169 MISS:     208063
cpu0_ITLB RFO          ACCESS:          0 HIT:          0 MISS:          0
cpu0_ITLB PREFETCH     ACCESS:          0 HIT:          0 MISS:          0
cpu0_ITLB WRITE        ACCESS:          0 HIT:          0 MISS:          0
cpu0_ITLB TRANSLATION  ACCESS:          0 HIT:          0 MISS:          0
cpu0_ITLB PREFETCH REQUESTED:          0 ISSUED:          0 USEFUL:          0 USELESS:          0
cpu0_ITLB AVERAGE MISS LATENCY: 3.064 cycles
cpu0_L1D TOTAL        ACCESS:  180683698 HIT:  177749659 MISS:    2934039
cpu0_L1D LOAD         ACCESS:   95127353 HIT:   92717941 MISS:    2409412
cpu0_L1D RFO          ACCESS:          0 HIT:          0 MISS:          0
cpu0_L1D PREFETCH     ACCESS:          0 HIT:          0 MISS:          0
cpu0_L1D WRITE        ACCESS:   85527822 HIT:   85029716 MISS:     498106
cpu0_L1D TRANSLATION  ACCESS:      28523 HIT:       2002 MISS:      26521
cpu0_L1D PREFETCH REQUESTED:          0 ISSUED:          0 USEFUL:          0 USELESS:          0
cpu0_L1D AVERAGE MISS LATENCY: 63.4 cycles
cpu0_L1I TOTAL        ACCESS:   10497545 HIT:    8606518 MISS:    1891027
cpu0_L1I LOAD         ACCESS:   10497545 HIT:    8606518 MISS:    1891027
cpu0_L1I RFO          ACCESS:          0 HIT:          0 MISS:          0
cpu0_L1I PREFETCH     ACCESS:          0 HIT:          0 MISS:          0
cpu0_L1I WRITE        ACCESS:          0 HIT:          0 MISS:          0
cpu0_L1I TRANSLATION  ACCESS:          0 HIT:          0 MISS:          0
cpu0_L1I PREFETCH REQUESTED:          0 ISSUED:          0 USEFUL:          0 USELESS:          0
cpu0_L1I AVERAGE MISS LATENCY: 10.7 cycles
cpu0_L2C TOTAL        ACCESS:    3236261 HIT:    2807847 MISS:     428414
cpu0_L2C LOAD         ACCESS:    2709744 HIT:    2333118 MISS:     376626
cpu0_L2C RFO          ACCESS:     135289 HIT:     102645 MISS:      32644
cpu0_L2C PREFETCH     ACCESS:          0 HIT:          0 MISS:          0
cpu0_L2C WRITE        ACCESS:     364795 HIT:     363859 MISS:        936
cpu0_L2C TRANSLATION  ACCESS:      26433 HIT:       8225 MISS:      18208
cpu0_L2C PREFETCH REQUESTED:          0 ISSUED:          0 USEFUL:          0 USELESS:          0
cpu0_L2C AVERAGE MISS LATENCY: 446 cycles
cpu0_STLB TOTAL        ACCESS:    1009526 HIT:     982836 MISS:      26690
cpu0_STLB LOAD         ACCESS:    1009526 HIT:     982836 MISS:      26690
cpu0_STLB RFO          ACCESS:          0 HIT:          0 MISS:          0
cpu0_STLB PREFETCH     ACCESS:          0 HIT:          0 MISS:          0
cpu0_STLB WRITE        ACCESS:          0 HIT:          0 MISS:          0
cpu0_STLB TRANSLATION  ACCESS:          0 HIT:          0 MISS:          0
cpu0_STLB PREFETCH REQUESTED:          0 ISSUED:          0 USEFUL:          0 USELESS:          0
cpu0_STLB AVERAGE MISS LATENCY: 396.4 cycles

DRAM Statistics

Channel 0 RQ ROW_BUFFER_HIT:      66500
  ROW_BUFFER_MISS:     253992
 AVG DBUS CONGESTED CYCLE: 3.849
WQ ROW_BUFFER_HIT: Channel 0 
  ROW_BUFFER_MISS:       6179
  FULL:      43476
