WARNING: physical memory size is smaller than virtual memory size.

*** ChampSim Multicore Out-of-Order Simulator ***
Warmup Instructions: 50000000
Simulation Instructions: 600000000
Number of CPUs: 1
Page size: 4096

Off-chip DRAM Size: 4 GiB Channels: 1 Width: 64-bit Data Race: 3200 MT/s
Heartbeat CPU 0 instructions: 10000001 cycles: 2500318 heartbeat IPC: 3.999 cumulative IPC: 3.999 (Simulation time: 00 hr 01 min 39 sec)
Heartbeat CPU 0 instructions: 20000002 cycles: 5037103 heartbeat IPC: 3.942 cumulative IPC: 3.971 (Simulation time: 00 hr 03 min 57 sec)
Heartbeat CPU 0 instructions: 30000002 cycles: 7537103 heartbeat IPC: 4 cumulative IPC: 3.98 (Simulation time: 00 hr 06 min 31 sec)
Heartbeat CPU 0 instructions: 40000002 cycles: 10037103 heartbeat IPC: 4 cumulative IPC: 3.985 (Simulation time: 00 hr 09 min 30 sec)
Heartbeat CPU 0 instructions: 50000002 cycles: 12537103 heartbeat IPC: 4 cumulative IPC: 3.988 (Simulation time: 00 hr 12 min 55 sec)
Warmup finished CPU 0 instructions: 50000002 cycles: 12537104 cumulative IPC: 3.988 (Simulation time: 00 hr 12 min 55 sec)
Warmup complete CPU 0 instructions: 50000002 cycles: 12537104 cumulative IPC: 3.988 (Simulation time: 00 hr 12 min 55 sec)
Heartbeat CPU 0 instructions: 60000000 cycles: 17146510 heartbeat IPC: 2.169 cumulative IPC: 2.169 (Simulation time: 00 hr 18 min 16 sec)
Heartbeat CPU 0 instructions: 70000004 cycles: 21416205 heartbeat IPC: 2.342 cumulative IPC: 2.252 (Simulation time: 00 hr 23 min 11 sec)
Heartbeat CPU 0 instructions: 80000001 cycles: 26010200 heartbeat IPC: 2.177 cumulative IPC: 2.227 (Simulation time: 00 hr 28 min 16 sec)
Heartbeat CPU 0 instructions: 90000001 cycles: 30133225 heartbeat IPC: 2.425 cumulative IPC: 2.273 (Simulation time: 00 hr 33 min 05 sec)
Heartbeat CPU 0 instructions: 100000000 cycles: 34186103 heartbeat IPC: 2.467 cumulative IPC: 2.31 (Simulation time: 00 hr 37 min 52 sec)
Heartbeat CPU 0 instructions: 110000000 cycles: 38422607 heartbeat IPC: 2.36 cumulative IPC: 2.318 (Simulation time: 00 hr 42 min 44 sec)
Heartbeat CPU 0 instructions: 120000001 cycles: 42433985 heartbeat IPC: 2.493 cumulative IPC: 2.341 (Simulation time: 00 hr 47 min 30 sec)
Heartbeat CPU 0 instructions: 130000001 cycles: 46172696 heartbeat IPC: 2.675 cumulative IPC: 2.378 (Simulation time: 00 hr 52 min 08 sec)
Heartbeat CPU 0 instructions: 140000001 cycles: 50330704 heartbeat IPC: 2.405 cumulative IPC: 2.381 (Simulation time: 00 hr 56 min 57 sec)
Heartbeat CPU 0 instructions: 150000001 cycles: 54530035 heartbeat IPC: 2.381 cumulative IPC: 2.381 (Simulation time: 01 hr 01 min 52 sec)
Heartbeat CPU 0 instructions: 160000004 cycles: 58944669 heartbeat IPC: 2.265 cumulative IPC: 2.37 (Simulation time: 01 hr 06 min 52 sec)
Heartbeat CPU 0 instructions: 170000004 cycles: 68252897 heartbeat IPC: 1.074 cumulative IPC: 2.154 (Simulation time: 01 hr 15 min 02 sec)
Heartbeat CPU 0 instructions: 180000004 cycles: 79090238 heartbeat IPC: 0.9227 cumulative IPC: 1.953 (Simulation time: 01 hr 24 min 21 sec)
Heartbeat CPU 0 instructions: 190000001 cycles: 89346059 heartbeat IPC: 0.9751 cumulative IPC: 1.823 (Simulation time: 01 hr 33 min 21 sec)
Heartbeat CPU 0 instructions: 200000004 cycles: 93119605 heartbeat IPC: 2.65 cumulative IPC: 1.861 (Simulation time: 01 hr 37 min 58 sec)
Heartbeat CPU 0 instructions: 210000001 cycles: 97037727 heartbeat IPC: 2.552 cumulative IPC: 1.893 (Simulation time: 01 hr 42 min 46 sec)
Heartbeat CPU 0 instructions: 220000000 cycles: 100996785 heartbeat IPC: 2.526 cumulative IPC: 1.922 (Simulation time: 01 hr 47 min 31 sec)
Heartbeat CPU 0 instructions: 230000002 cycles: 105670613 heartbeat IPC: 2.14 cumulative IPC: 1.933 (Simulation time: 01 hr 52 min 40 sec)
Heartbeat CPU 0 instructions: 240000000 cycles: 109869570 heartbeat IPC: 2.382 cumulative IPC: 1.952 (Simulation time: 01 hr 57 min 33 sec)
Heartbeat CPU 0 instructions: 250000000 cycles: 114190815 heartbeat IPC: 2.314 cumulative IPC: 1.967 (Simulation time: 02 hr 02 min 32 sec)
Heartbeat CPU 0 instructions: 260000000 cycles: 118378158 heartbeat IPC: 2.388 cumulative IPC: 1.984 (Simulation time: 02 hr 07 min 25 sec)
Heartbeat CPU 0 instructions: 270000002 cycles: 122228872 heartbeat IPC: 2.597 cumulative IPC: 2.006 (Simulation time: 02 hr 12 min 05 sec)
Heartbeat CPU 0 instructions: 280000002 cycles: 126401544 heartbeat IPC: 2.397 cumulative IPC: 2.02 (Simulation time: 02 hr 16 min 57 sec)
Heartbeat CPU 0 instructions: 290000001 cycles: 130303131 heartbeat IPC: 2.563 cumulative IPC: 2.038 (Simulation time: 02 hr 21 min 39 sec)
Heartbeat CPU 0 instructions: 300000003 cycles: 134133524 heartbeat IPC: 2.611 cumulative IPC: 2.056 (Simulation time: 02 hr 26 min 26 sec)
Heartbeat CPU 0 instructions: 310000001 cycles: 138257747 heartbeat IPC: 2.425 cumulative IPC: 2.068 (Simulation time: 02 hr 31 min 17 sec)
Heartbeat CPU 0 instructions: 320000003 cycles: 142336022 heartbeat IPC: 2.452 cumulative IPC: 2.08 (Simulation time: 02 hr 36 min 08 sec)
Heartbeat CPU 0 instructions: 330000003 cycles: 146747195 heartbeat IPC: 2.267 cumulative IPC: 2.086 (Simulation time: 02 hr 41 min 03 sec)
Heartbeat CPU 0 instructions: 340000000 cycles: 157115906 heartbeat IPC: 0.9644 cumulative IPC: 2.006 (Simulation time: 02 hr 50 min 01 sec)
Heartbeat CPU 0 instructions: 350000000 cycles: 168566350 heartbeat IPC: 0.8733 cumulative IPC: 1.923 (Simulation time: 02 hr 59 min 47 sec)
Heartbeat CPU 0 instructions: 360000004 cycles: 178755824 heartbeat IPC: 0.9814 cumulative IPC: 1.865 (Simulation time: 03 hr 08 min 42 sec)
Heartbeat CPU 0 instructions: 370000000 cycles: 182196666 heartbeat IPC: 2.906 cumulative IPC: 1.886 (Simulation time: 03 hr 13 min 11 sec)
Heartbeat CPU 0 instructions: 380000001 cycles: 185614044 heartbeat IPC: 2.926 cumulative IPC: 1.907 (Simulation time: 03 hr 17 min 38 sec)
Heartbeat CPU 0 instructions: 390000004 cycles: 189361303 heartbeat IPC: 2.669 cumulative IPC: 1.923 (Simulation time: 03 hr 22 min 16 sec)
Heartbeat CPU 0 instructions: 400000004 cycles: 193172687 heartbeat IPC: 2.624 cumulative IPC: 1.938 (Simulation time: 03 hr 27 min 00 sec)
Heartbeat CPU 0 instructions: 410000001 cycles: 196825428 heartbeat IPC: 2.738 cumulative IPC: 1.953 (Simulation time: 03 hr 31 min 33 sec)
Heartbeat CPU 0 instructions: 420000003 cycles: 200916973 heartbeat IPC: 2.444 cumulative IPC: 1.964 (Simulation time: 03 hr 36 min 21 sec)
Heartbeat CPU 0 instructions: 430000001 cycles: 204576770 heartbeat IPC: 2.732 cumulative IPC: 1.979 (Simulation time: 03 hr 41 min 00 sec)
Heartbeat CPU 0 instructions: 440000004 cycles: 208661321 heartbeat IPC: 2.448 cumulative IPC: 1.989 (Simulation time: 03 hr 45 min 50 sec)
Heartbeat CPU 0 instructions: 450000002 cycles: 212395406 heartbeat IPC: 2.678 cumulative IPC: 2.001 (Simulation time: 03 hr 50 min 32 sec)
Heartbeat CPU 0 instructions: 460000000 cycles: 216068680 heartbeat IPC: 2.722 cumulative IPC: 2.014 (Simulation time: 03 hr 55 min 07 sec)
Heartbeat CPU 0 instructions: 470000000 cycles: 219534003 heartbeat IPC: 2.886 cumulative IPC: 2.029 (Simulation time: 03 hr 59 min 40 sec)
Heartbeat CPU 0 instructions: 480000003 cycles: 223363200 heartbeat IPC: 2.612 cumulative IPC: 2.04 (Simulation time: 04 hr 04 min 22 sec)
Heartbeat CPU 0 instructions: 490000000 cycles: 226991071 heartbeat IPC: 2.756 cumulative IPC: 2.052 (Simulation time: 04 hr 08 min 56 sec)
Heartbeat CPU 0 instructions: 500000000 cycles: 230685346 heartbeat IPC: 2.707 cumulative IPC: 2.063 (Simulation time: 04 hr 13 min 35 sec)
Heartbeat CPU 0 instructions: 510000003 cycles: 234352707 heartbeat IPC: 2.727 cumulative IPC: 2.074 (Simulation time: 04 hr 18 min 12 sec)
Heartbeat CPU 0 instructions: 520000001 cycles: 237769727 heartbeat IPC: 2.927 cumulative IPC: 2.087 (Simulation time: 04 hr 22 min 44 sec)
Heartbeat CPU 0 instructions: 530000002 cycles: 241440967 heartbeat IPC: 2.724 cumulative IPC: 2.097 (Simulation time: 04 hr 27 min 21 sec)
Heartbeat CPU 0 instructions: 540000000 cycles: 244967243 heartbeat IPC: 2.836 cumulative IPC: 2.108 (Simulation time: 04 hr 31 min 53 sec)
Heartbeat CPU 0 instructions: 550000001 cycles: 248664746 heartbeat IPC: 2.705 cumulative IPC: 2.117 (Simulation time: 04 hr 36 min 32 sec)
Heartbeat CPU 0 instructions: 560000000 cycles: 252634613 heartbeat IPC: 2.519 cumulative IPC: 2.124 (Simulation time: 04 hr 41 min 17 sec)
Heartbeat CPU 0 instructions: 570000004 cycles: 259079231 heartbeat IPC: 1.552 cumulative IPC: 2.109 (Simulation time: 04 hr 47 min 49 sec)
Heartbeat CPU 0 instructions: 580000003 cycles: 270781391 heartbeat IPC: 0.8545 cumulative IPC: 2.052 (Simulation time: 04 hr 57 min 38 sec)
Heartbeat CPU 0 instructions: 590000002 cycles: 284112728 heartbeat IPC: 0.7501 cumulative IPC: 1.988 (Simulation time: 05 hr 08 min 28 sec)
Heartbeat CPU 0 instructions: 600000000 cycles: 287874343 heartbeat IPC: 2.658 cumulative IPC: 1.998 (Simulation time: 05 hr 13 min 08 sec)
Heartbeat CPU 0 instructions: 610000000 cycles: 291732968 heartbeat IPC: 2.592 cumulative IPC: 2.006 (Simulation time: 05 hr 17 min 46 sec)
Heartbeat CPU 0 instructions: 620000001 cycles: 295167316 heartbeat IPC: 2.912 cumulative IPC: 2.017 (Simulation time: 05 hr 22 min 17 sec)
Heartbeat CPU 0 instructions: 630000002 cycles: 299445756 heartbeat IPC: 2.337 cumulative IPC: 2.022 (Simulation time: 05 hr 27 min 14 sec)
Heartbeat CPU 0 instructions: 640000001 cycles: 303341625 heartbeat IPC: 2.567 cumulative IPC: 2.029 (Simulation time: 05 hr 31 min 59 sec)
Heartbeat CPU 0 instructions: 650000000 cycles: 307095558 heartbeat IPC: 2.664 cumulative IPC: 2.037 (Simulation time: 05 hr 36 min 35 sec)
Simulation finished CPU 0 instructions: 600000001 cycles: 294558456 cumulative IPC: 2.037 (Simulation time: 05 hr 36 min 35 sec)
Simulation complete CPU 0 instructions: 600000001 cycles: 294558456 cumulative IPC: 2.037 (Simulation time: 05 hr 36 min 35 sec)

ChampSim completed all CPUs

=== Simulation ===
CPU 0 runs traces/400.perlbench-41B.champsimtrace.xz
Region of Interest Statistics

CPU 0 cumulative IPC: 2.037 instructions: 600000001 cycles: 294558456
CPU 0 Branch Prediction Accuracy: 96.56% MPKI: 7.112 Average ROB Occupancy at Mispredict: 47.3
Branch type MPKI
BRANCH_DIRECT_JUMP: 0.0123
BRANCH_INDIRECT: 0.323
BRANCH_CONDITIONAL: 6.56
BRANCH_DIRECT_CALL: 0.0043
BRANCH_INDIRECT_CALL: 0.2
BRANCH_RETURN: 0.00828

LLC TOTAL        ACCESS:     464496 HIT:     178257 MISS:     286239
LLC LOAD         ACCESS:     309792 HIT:      84483 MISS:     225309
LLC RFO          ACCESS:      25189 HIT:       9407 MISS:      15782
LLC PREFETCH     ACCESS:      49445 HIT:      22757 MISS:      26688
LLC WRITE        ACCESS:      64207 HIT:      56441 MISS:       7766
LLC TRANSLATION  ACCESS:      15863 HIT:       5169 MISS:      10694
LLC PREFETCH REQUESTED:      49445 ISSUED:      49445 USEFUL:      15865 USELESS:       7207
LLC AVERAGE MISS LATENCY: 564.1 cycles
cpu0_DTLB TOTAL        ACCESS:  141895875 HIT:  141210109 MISS:     685766
cpu0_DTLB LOAD         ACCESS:  141895875 HIT:  141210109 MISS:     685766
cpu0_DTLB RFO          ACCESS:          0 HIT:          0 MISS:          0
cpu0_DTLB PREFETCH     ACCESS:          0 HIT:          0 MISS:          0
cpu0_DTLB WRITE        ACCESS:          0 HIT:          0 MISS:          0
cpu0_DTLB TRANSLATION  ACCESS:          0 HIT:          0 MISS:          0
cpu0_DTLB PREFETCH REQUESTED:          0 ISSUED:          0 USEFUL:          0 USELESS:          0
cpu0_DTLB AVERAGE MISS LATENCY: 15.61 cycles
cpu0_ITLB TOTAL        ACCESS:    4860975 HIT:    4807673 MISS:      53302
cpu0_ITLB LOAD         ACCESS:    4860975 HIT:    4807673 MISS:      53302
cpu0_ITLB RFO          ACCESS:          0 HIT:          0 MISS:          0
cpu0_ITLB PREFETCH     ACCESS:          0 HIT:          0 MISS:          0
cpu0_ITLB WRITE        ACCESS:          0 HIT:          0 MISS:          0
cpu0_ITLB TRANSLATION  ACCESS:          0 HIT:          0 MISS:          0
cpu0_ITLB PREFETCH REQUESTED:          0 ISSUED:          0 USEFUL:          0 USELESS:          0
cpu0_ITLB AVERAGE MISS LATENCY: 8.389 cycles
cpu0_L1D TOTAL        ACCESS:  188566736 HIT:  187226618 MISS:    1340118
cpu0_L1D LOAD         ACCESS:  105199010 HIT:  104167962 MISS:    1031048
cpu0_L1D RFO          ACCESS:          0 HIT:          0 MISS:          0
cpu0_L1D PREFETCH     ACCESS:          0 HIT:          0 MISS:          0
cpu0_L1D WRITE        ACCESS:   83343261 HIT:   83057048 MISS:     286213
cpu0_L1D TRANSLATION  ACCESS:      24465 HIT:       1608 MISS:      22857
cpu0_L1D PREFETCH REQUESTED:          0 ISSUED:          0 USEFUL:          0 USELESS:          0
cpu0_L1D AVERAGE MISS LATENCY: 111.1 cycles
cpu0_L1I TOTAL        ACCESS:    5598538 HIT:    4854447 MISS:     744091
cpu0_L1I LOAD         ACCESS:    5598538 HIT:    4854447 MISS:     744091
cpu0_L1I RFO          ACCESS:          0 HIT:          0 MISS:          0
cpu0_L1I PREFETCH     ACCESS:          0 HIT:          0 MISS:          0
cpu0_L1I WRITE        ACCESS:          0 HIT:          0 MISS:          0
cpu0_L1I TRANSLATION  ACCESS:          0 HIT:          0 MISS:          0
cpu0_L1I PREFETCH REQUESTED:          0 ISSUED:          0 USEFUL:          0 USELESS:          0
cpu0_L1I AVERAGE MISS LATENCY: 13.42 cycles
cpu0_L2C TOTAL        ACCESS:    1380801 HIT:    1029081 MISS:     351720
cpu0_L2C LOAD         ACCESS:    1124736 HIT:     814944 MISS:     309792
cpu0_L2C RFO          ACCESS:      63796 HIT:      38607 MISS:      25189
cpu0_L2C PREFETCH     ACCESS:          0 HIT:          0 MISS:          0
cpu0_L2C WRITE        ACCESS:     169481 HIT:     168605 MISS:        876
cpu0_L2C TRANSLATION  ACCESS:      22788 HIT:       6925 MISS:      15863
cpu0_L2C PREFETCH REQUESTED:          0 ISSUED:          0 USEFUL:          0 USELESS:          0
cpu0_L2C AVERAGE MISS LATENCY: 432.5 cycles
cpu0_STLB TOTAL        ACCESS:     507300 HIT:     484506 MISS:      22794
cpu0_STLB LOAD         ACCESS:     507300 HIT:     484506 MISS:      22794
cpu0_STLB RFO          ACCESS:          0 HIT:          0 MISS:          0
cpu0_STLB PREFETCH     ACCESS:          0 HIT:          0 MISS:          0
cpu0_STLB WRITE        ACCESS:          0 HIT:          0 MISS:          0
cpu0_STLB TRANSLATION  ACCESS:          0 HIT:          0 MISS:          0
cpu0_STLB PREFETCH REQUESTED:          0 ISSUED:          0 USEFUL:          0 USELESS:          0
cpu0_STLB AVERAGE MISS LATENCY: 352.8 cycles

DRAM Statistics

Channel 0 RQ ROW_BUFFER_HIT:      47817
  ROW_BUFFER_MISS:     225669
 AVG DBUS CONGESTED CYCLE: 3.822
WQ ROW_BUFFER_HIT: Channel 0 
  ROW_BUFFER_MISS:       7430
  FULL:      34203
