WARNING: physical memory size is smaller than virtual memory size.

*** ChampSim Multicore Out-of-Order Simulator ***
Warmup Instructions: 50000000
Simulation Instructions: 600000000
Number of CPUs: 1
Page size: 4096

Off-chip DRAM Size: 4 GiB Channels: 1 Width: 64-bit Data Race: 3200 MT/s
Heartbeat CPU 0 instructions: 10000001 cycles: 2500319 heartbeat IPC: 3.999 cumulative IPC: 3.999 (Simulation time: 00 hr 00 min 37 sec)
Heartbeat CPU 0 instructions: 20000002 cycles: 5037096 heartbeat IPC: 3.942 cumulative IPC: 3.971 (Simulation time: 00 hr 01 min 15 sec)
Heartbeat CPU 0 instructions: 30000002 cycles: 7537096 heartbeat IPC: 4 cumulative IPC: 3.98 (Simulation time: 00 hr 01 min 48 sec)
Heartbeat CPU 0 instructions: 40000002 cycles: 10037096 heartbeat IPC: 4 cumulative IPC: 3.985 (Simulation time: 00 hr 02 min 23 sec)
Heartbeat CPU 0 instructions: 50000002 cycles: 12537096 heartbeat IPC: 4 cumulative IPC: 3.988 (Simulation time: 00 hr 02 min 57 sec)
Warmup finished CPU 0 instructions: 50000002 cycles: 12537097 cumulative IPC: 3.988 (Simulation time: 00 hr 02 min 57 sec)
Warmup complete CPU 0 instructions: 50000002 cycles: 12537097 cumulative IPC: 3.988 (Simulation time: 00 hr 02 min 57 sec)
Heartbeat CPU 0 instructions: 60000000 cycles: 17718497 heartbeat IPC: 1.93 cumulative IPC: 1.93 (Simulation time: 00 hr 03 min 49 sec)
Heartbeat CPU 0 instructions: 70000002 cycles: 22623576 heartbeat IPC: 2.039 cumulative IPC: 1.983 (Simulation time: 00 hr 04 min 35 sec)
Heartbeat CPU 0 instructions: 80000001 cycles: 27985540 heartbeat IPC: 1.865 cumulative IPC: 1.942 (Simulation time: 00 hr 05 min 22 sec)
Heartbeat CPU 0 instructions: 90000001 cycles: 32858308 heartbeat IPC: 2.052 cumulative IPC: 1.968 (Simulation time: 00 hr 06 min 06 sec)
Heartbeat CPU 0 instructions: 100000000 cycles: 37975153 heartbeat IPC: 1.954 cumulative IPC: 1.966 (Simulation time: 00 hr 06 min 50 sec)
Heartbeat CPU 0 instructions: 110000000 cycles: 42854940 heartbeat IPC: 2.049 cumulative IPC: 1.979 (Simulation time: 00 hr 07 min 33 sec)
Heartbeat CPU 0 instructions: 120000001 cycles: 48051479 heartbeat IPC: 1.924 cumulative IPC: 1.971 (Simulation time: 00 hr 08 min 18 sec)
Heartbeat CPU 0 instructions: 130000001 cycles: 53206499 heartbeat IPC: 1.94 cumulative IPC: 1.967 (Simulation time: 00 hr 09 min 04 sec)
Heartbeat CPU 0 instructions: 140000001 cycles: 58523343 heartbeat IPC: 1.881 cumulative IPC: 1.957 (Simulation time: 00 hr 09 min 50 sec)
Heartbeat CPU 0 instructions: 150000001 cycles: 63840426 heartbeat IPC: 1.881 cumulative IPC: 1.949 (Simulation time: 00 hr 10 min 36 sec)
Heartbeat CPU 0 instructions: 160000004 cycles: 69055782 heartbeat IPC: 1.917 cumulative IPC: 1.946 (Simulation time: 00 hr 11 min 21 sec)
Heartbeat CPU 0 instructions: 170000000 cycles: 79225528 heartbeat IPC: 0.9833 cumulative IPC: 1.799 (Simulation time: 00 hr 12 min 32 sec)
Heartbeat CPU 0 instructions: 180000004 cycles: 90013563 heartbeat IPC: 0.927 cumulative IPC: 1.678 (Simulation time: 00 hr 13 min 49 sec)
Heartbeat CPU 0 instructions: 190000001 cycles: 100592610 heartbeat IPC: 0.9453 cumulative IPC: 1.59 (Simulation time: 00 hr 15 min 03 sec)
Heartbeat CPU 0 instructions: 200000003 cycles: 105378280 heartbeat IPC: 2.09 cumulative IPC: 1.616 (Simulation time: 00 hr 15 min 47 sec)
Heartbeat CPU 0 instructions: 210000001 cycles: 110303769 heartbeat IPC: 2.03 cumulative IPC: 1.637 (Simulation time: 00 hr 16 min 31 sec)
Heartbeat CPU 0 instructions: 220000000 cycles: 115136180 heartbeat IPC: 2.069 cumulative IPC: 1.657 (Simulation time: 00 hr 17 min 15 sec)
Heartbeat CPU 0 instructions: 230000002 cycles: 120460498 heartbeat IPC: 1.878 cumulative IPC: 1.668 (Simulation time: 00 hr 18 min 00 sec)
Heartbeat CPU 0 instructions: 240000000 cycles: 125314400 heartbeat IPC: 2.06 cumulative IPC: 1.685 (Simulation time: 00 hr 18 min 44 sec)
Heartbeat CPU 0 instructions: 250000000 cycles: 130469830 heartbeat IPC: 1.94 cumulative IPC: 1.696 (Simulation time: 00 hr 19 min 29 sec)
Heartbeat CPU 0 instructions: 260000000 cycles: 135496801 heartbeat IPC: 1.989 cumulative IPC: 1.708 (Simulation time: 00 hr 20 min 35 sec)
Heartbeat CPU 0 instructions: 270000002 cycles: 140389820 heartbeat IPC: 2.044 cumulative IPC: 1.721 (Simulation time: 00 hr 22 min 06 sec)
Heartbeat CPU 0 instructions: 280000002 cycles: 145290134 heartbeat IPC: 2.041 cumulative IPC: 1.733 (Simulation time: 00 hr 23 min 29 sec)
Heartbeat CPU 0 instructions: 290000001 cycles: 150662898 heartbeat IPC: 1.861 cumulative IPC: 1.738 (Simulation time: 00 hr 24 min 57 sec)
Heartbeat CPU 0 instructions: 300000003 cycles: 155725423 heartbeat IPC: 1.975 cumulative IPC: 1.746 (Simulation time: 00 hr 26 min 24 sec)
Heartbeat CPU 0 instructions: 310000001 cycles: 161029885 heartbeat IPC: 1.885 cumulative IPC: 1.751 (Simulation time: 00 hr 27 min 51 sec)
Heartbeat CPU 0 instructions: 320000003 cycles: 166239613 heartbeat IPC: 1.919 cumulative IPC: 1.757 (Simulation time: 00 hr 28 min 57 sec)
Heartbeat CPU 0 instructions: 330000003 cycles: 171546935 heartbeat IPC: 1.884 cumulative IPC: 1.761 (Simulation time: 00 hr 29 min 43 sec)
Heartbeat CPU 0 instructions: 340000000 cycles: 181761303 heartbeat IPC: 0.979 cumulative IPC: 1.714 (Simulation time: 00 hr 30 min 54 sec)
Heartbeat CPU 0 instructions: 350000000 cycles: 192955980 heartbeat IPC: 0.8933 cumulative IPC: 1.663 (Simulation time: 00 hr 32 min 13 sec)
Heartbeat CPU 0 instructions: 360000004 cycles: 203722855 heartbeat IPC: 0.9288 cumulative IPC: 1.621 (Simulation time: 00 hr 33 min 28 sec)
Heartbeat CPU 0 instructions: 370000000 cycles: 208134547 heartbeat IPC: 2.267 cumulative IPC: 1.636 (Simulation time: 00 hr 34 min 11 sec)
Heartbeat CPU 0 instructions: 380000001 cycles: 213071126 heartbeat IPC: 2.026 cumulative IPC: 1.646 (Simulation time: 00 hr 34 min 56 sec)
Heartbeat CPU 0 instructions: 390000002 cycles: 217898701 heartbeat IPC: 2.071 cumulative IPC: 1.656 (Simulation time: 00 hr 35 min 40 sec)
Heartbeat CPU 0 instructions: 400000004 cycles: 222834424 heartbeat IPC: 2.026 cumulative IPC: 1.664 (Simulation time: 00 hr 36 min 24 sec)
Heartbeat CPU 0 instructions: 410000000 cycles: 227562116 heartbeat IPC: 2.115 cumulative IPC: 1.674 (Simulation time: 00 hr 37 min 08 sec)
Heartbeat CPU 0 instructions: 420000000 cycles: 232749987 heartbeat IPC: 1.928 cumulative IPC: 1.68 (Simulation time: 00 hr 37 min 53 sec)
Heartbeat CPU 0 instructions: 430000001 cycles: 237220038 heartbeat IPC: 2.237 cumulative IPC: 1.691 (Simulation time: 00 hr 38 min 36 sec)
Heartbeat CPU 0 instructions: 440000000 cycles: 242572909 heartbeat IPC: 1.868 cumulative IPC: 1.695 (Simulation time: 00 hr 39 min 21 sec)
Heartbeat CPU 0 instructions: 450000002 cycles: 247240184 heartbeat IPC: 2.143 cumulative IPC: 1.704 (Simulation time: 00 hr 40 min 05 sec)
Heartbeat CPU 0 instructions: 460000000 cycles: 252027677 heartbeat IPC: 2.089 cumulative IPC: 1.712 (Simulation time: 00 hr 40 min 48 sec)
Heartbeat CPU 0 instructions: 470000000 cycles: 257004410 heartbeat IPC: 2.009 cumulative IPC: 1.718 (Simulation time: 00 hr 41 min 33 sec)
Heartbeat CPU 0 instructions: 480000003 cycles: 261817758 heartbeat IPC: 2.078 cumulative IPC: 1.725 (Simulation time: 00 hr 42 min 17 sec)
Heartbeat CPU 0 instructions: 490000000 cycles: 266421466 heartbeat IPC: 2.172 cumulative IPC: 1.733 (Simulation time: 00 hr 42 min 59 sec)
Heartbeat CPU 0 instructions: 500000000 cycles: 271442645 heartbeat IPC: 1.992 cumulative IPC: 1.738 (Simulation time: 00 hr 43 min 44 sec)
Heartbeat CPU 0 instructions: 510000003 cycles: 277106744 heartbeat IPC: 1.766 cumulative IPC: 1.739 (Simulation time: 00 hr 44 min 32 sec)
Heartbeat CPU 0 instructions: 520000001 cycles: 281793019 heartbeat IPC: 2.134 cumulative IPC: 1.746 (Simulation time: 00 hr 45 min 16 sec)
Heartbeat CPU 0 instructions: 530000002 cycles: 286937489 heartbeat IPC: 1.944 cumulative IPC: 1.749 (Simulation time: 00 hr 46 min 00 sec)
Heartbeat CPU 0 instructions: 540000000 cycles: 292048738 heartbeat IPC: 1.956 cumulative IPC: 1.753 (Simulation time: 00 hr 46 min 44 sec)
Heartbeat CPU 0 instructions: 550000001 cycles: 296855928 heartbeat IPC: 2.08 cumulative IPC: 1.759 (Simulation time: 00 hr 47 min 27 sec)
Heartbeat CPU 0 instructions: 560000000 cycles: 302112932 heartbeat IPC: 1.902 cumulative IPC: 1.761 (Simulation time: 00 hr 48 min 10 sec)
Heartbeat CPU 0 instructions: 570000004 cycles: 309190020 heartbeat IPC: 1.413 cumulative IPC: 1.753 (Simulation time: 00 hr 49 min 04 sec)
Heartbeat CPU 0 instructions: 580000003 cycles: 321063765 heartbeat IPC: 0.8422 cumulative IPC: 1.718 (Simulation time: 00 hr 50 min 21 sec)
Heartbeat CPU 0 instructions: 590000002 cycles: 334534633 heartbeat IPC: 0.7423 cumulative IPC: 1.677 (Simulation time: 00 hr 51 min 41 sec)
Heartbeat CPU 0 instructions: 600000000 cycles: 339124921 heartbeat IPC: 2.179 cumulative IPC: 1.684 (Simulation time: 00 hr 52 min 20 sec)
Heartbeat CPU 0 instructions: 610000002 cycles: 343617145 heartbeat IPC: 2.226 cumulative IPC: 1.691 (Simulation time: 00 hr 52 min 56 sec)
Heartbeat CPU 0 instructions: 620000000 cycles: 348423553 heartbeat IPC: 2.081 cumulative IPC: 1.697 (Simulation time: 00 hr 53 min 32 sec)
Heartbeat CPU 0 instructions: 630000002 cycles: 353515542 heartbeat IPC: 1.964 cumulative IPC: 1.701 (Simulation time: 00 hr 54 min 07 sec)
Heartbeat CPU 0 instructions: 640000001 cycles: 358367656 heartbeat IPC: 2.061 cumulative IPC: 1.706 (Simulation time: 00 hr 54 min 39 sec)
Heartbeat CPU 0 instructions: 650000000 cycles: 362920159 heartbeat IPC: 2.197 cumulative IPC: 1.712 (Simulation time: 00 hr 55 min 08 sec)
Simulation finished CPU 0 instructions: 600000001 cycles: 350383064 cumulative IPC: 1.712 (Simulation time: 00 hr 55 min 08 sec)
Simulation complete CPU 0 instructions: 600000001 cycles: 350383064 cumulative IPC: 1.712 (Simulation time: 00 hr 55 min 08 sec)

ChampSim completed all CPUs

=== Simulation ===
CPU 0 runs traces/400.perlbench-41B.champsimtrace.xz
Region of Interest Statistics

CPU 0 cumulative IPC: 1.712 instructions: 600000001 cycles: 350383064
CPU 0 Branch Prediction Accuracy: 93.95% MPKI: 12.5 Average ROB Occupancy at Mispredict: 29.5
Branch type MPKI
BRANCH_DIRECT_JUMP: 0.0123
BRANCH_INDIRECT: 0.323
BRANCH_CONDITIONAL: 12
BRANCH_DIRECT_CALL: 0.0043
BRANCH_INDIRECT_CALL: 0.2
BRANCH_RETURN: 0.00828

LLC TOTAL        ACCESS:     721630 HIT:     267802 MISS:     453828
LLC LOAD         ACCESS:     308306 HIT:     115076 MISS:     193230
LLC RFO          ACCESS:      25129 HIT:       8355 MISS:      16774
LLC PREFETCH     ACCESS:     308306 HIT:     101699 MISS:     206607
LLC WRITE        ACCESS:      64188 HIT:      42611 MISS:      21577
LLC TRANSLATION  ACCESS:      15701 HIT:         61 MISS:      15640
LLC PREFETCH REQUESTED:     308306 ISSUED:     308306 USEFUL:      76412 USELESS:      81079
LLC AVERAGE MISS LATENCY: 556.3 cycles
cpu0_DTLB TOTAL        ACCESS:  153663844 HIT:  152987356 MISS:     676488
cpu0_DTLB LOAD         ACCESS:  153663844 HIT:  152987356 MISS:     676488
cpu0_DTLB RFO          ACCESS:          0 HIT:          0 MISS:          0
cpu0_DTLB PREFETCH     ACCESS:          0 HIT:          0 MISS:          0
cpu0_DTLB WRITE        ACCESS:          0 HIT:          0 MISS:          0
cpu0_DTLB TRANSLATION  ACCESS:          0 HIT:          0 MISS:          0
cpu0_DTLB PREFETCH REQUESTED:          0 ISSUED:          0 USEFUL:          0 USELESS:          0
cpu0_DTLB AVERAGE MISS LATENCY: 22.42 cycles
cpu0_ITLB TOTAL        ACCESS:    4835441 HIT:    4777407 MISS:      58034
cpu0_ITLB LOAD         ACCESS:    4835441 HIT:    4777407 MISS:      58034
cpu0_ITLB RFO          ACCESS:          0 HIT:          0 MISS:          0
cpu0_ITLB PREFETCH     ACCESS:          0 HIT:          0 MISS:          0
cpu0_ITLB WRITE        ACCESS:          0 HIT:          0 MISS:          0
cpu0_ITLB TRANSLATION  ACCESS:          0 HIT:          0 MISS:          0
cpu0_ITLB PREFETCH REQUESTED:          0 ISSUED:          0 USEFUL:          0 USELESS:          0
cpu0_ITLB AVERAGE MISS LATENCY: 8.605 cycles
cpu0_L1D TOTAL        ACCESS:  200296334 HIT:  198958307 MISS:    1338027
cpu0_L1D LOAD         ACCESS:  117052923 HIT:  116027402 MISS:    1025521
cpu0_L1D RFO          ACCESS:          0 HIT:          0 MISS:          0
cpu0_L1D PREFETCH     ACCESS:          0 HIT:          0 MISS:          0
cpu0_L1D WRITE        ACCESS:   83218943 HIT:   82929333 MISS:     289610
cpu0_L1D TRANSLATION  ACCESS:      24468 HIT:       1572 MISS:      22896
cpu0_L1D PREFETCH REQUESTED:          0 ISSUED:          0 USEFUL:          0 USELESS:          0
cpu0_L1D AVERAGE MISS LATENCY: 110.4 cycles
cpu0_L1I TOTAL        ACCESS:    5577827 HIT:    4815765 MISS:     762062
cpu0_L1I LOAD         ACCESS:    5577827 HIT:    4815765 MISS:     762062
cpu0_L1I RFO          ACCESS:          0 HIT:          0 MISS:          0
cpu0_L1I PREFETCH     ACCESS:          0 HIT:          0 MISS:          0
cpu0_L1I WRITE        ACCESS:          0 HIT:          0 MISS:          0
cpu0_L1I TRANSLATION  ACCESS:          0 HIT:          0 MISS:          0
cpu0_L1I PREFETCH REQUESTED:          0 ISSUED:          0 USEFUL:          0 USELESS:          0
cpu0_L1I AVERAGE MISS LATENCY: 12.78 cycles
cpu0_L2C TOTAL        ACCESS:    1382445 HIT:    1032456 MISS:     349989
cpu0_L2C LOAD         ACCESS:    1125678 HIT:     817372 MISS:     308306
cpu0_L2C RFO          ACCESS:      63900 HIT:      38771 MISS:      25129
cpu0_L2C PREFETCH     ACCESS:          0 HIT:          0 MISS:          0
cpu0_L2C WRITE        ACCESS:     170058 HIT:     169205 MISS:        853
cpu0_L2C TRANSLATION  ACCESS:      22809 HIT:       7108 MISS:      15701
cpu0_L2C PREFETCH REQUESTED:          0 ISSUED:          0 USEFUL:          0 USELESS:          0
cpu0_L2C AVERAGE MISS LATENCY: 427.4 cycles
cpu0_STLB TOTAL        ACCESS:     505003 HIT:     482213 MISS:      22790
cpu0_STLB LOAD         ACCESS:     505003 HIT:     482213 MISS:      22790
cpu0_STLB RFO          ACCESS:          0 HIT:          0 MISS:          0
cpu0_STLB PREFETCH     ACCESS:          0 HIT:          0 MISS:          0
cpu0_STLB WRITE        ACCESS:          0 HIT:          0 MISS:          0
cpu0_STLB TRANSLATION  ACCESS:          0 HIT:          0 MISS:          0
cpu0_STLB PREFETCH REQUESTED:          0 ISSUED:          0 USEFUL:          0 USELESS:          0
cpu0_STLB AVERAGE MISS LATENCY: 552.5 cycles

DRAM Statistics

Channel 0 RQ ROW_BUFFER_HIT:      62072
  ROW_BUFFER_MISS:     305644
 AVG DBUS CONGESTED CYCLE: 3.874
WQ ROW_BUFFER_HIT: Channel 0 
  ROW_BUFFER_MISS:       5806
  FULL:      42643
Final OPTGen Hits: 5198
Final OPTGen Access: 6712
Final OPTGEN Hit Rate: 77.4434
