WARNING: physical memory size is smaller than virtual memory size.

*** ChampSim Multicore Out-of-Order Simulator ***
Warmup Instructions: 50000000
Simulation Instructions: 600000000
Number of CPUs: 1
Page size: 4096

Off-chip DRAM Size: 4 GiB Channels: 1 Width: 64-bit Data Race: 3200 MT/s
Heartbeat CPU 0 instructions: 10000001 cycles: 2500318 heartbeat IPC: 3.999 cumulative IPC: 3.999 (Simulation time: 00 hr 03 min 49 sec)
Heartbeat CPU 0 instructions: 20000002 cycles: 5037087 heartbeat IPC: 3.942 cumulative IPC: 3.971 (Simulation time: 00 hr 07 min 48 sec)
Heartbeat CPU 0 instructions: 30000002 cycles: 7537087 heartbeat IPC: 4 cumulative IPC: 3.98 (Simulation time: 00 hr 11 min 27 sec)
Heartbeat CPU 0 instructions: 40000002 cycles: 10037087 heartbeat IPC: 4 cumulative IPC: 3.985 (Simulation time: 00 hr 15 min 11 sec)
Heartbeat CPU 0 instructions: 50000002 cycles: 12537087 heartbeat IPC: 4 cumulative IPC: 3.988 (Simulation time: 00 hr 19 min 06 sec)
Warmup finished CPU 0 instructions: 50000002 cycles: 12537088 cumulative IPC: 3.988 (Simulation time: 00 hr 19 min 06 sec)
Warmup complete CPU 0 instructions: 50000002 cycles: 12537088 cumulative IPC: 3.988 (Simulation time: 00 hr 19 min 06 sec)
Heartbeat CPU 0 instructions: 60000000 cycles: 17708939 heartbeat IPC: 1.934 cumulative IPC: 1.934 (Simulation time: 00 hr 24 min 42 sec)
Heartbeat CPU 0 instructions: 70000002 cycles: 22606646 heartbeat IPC: 2.042 cumulative IPC: 1.986 (Simulation time: 00 hr 30 min 10 sec)
Heartbeat CPU 0 instructions: 80000001 cycles: 27975967 heartbeat IPC: 1.862 cumulative IPC: 1.943 (Simulation time: 00 hr 35 min 45 sec)
Heartbeat CPU 0 instructions: 90000001 cycles: 32856638 heartbeat IPC: 2.049 cumulative IPC: 1.969 (Simulation time: 00 hr 41 min 02 sec)
Heartbeat CPU 0 instructions: 100000000 cycles: 37970830 heartbeat IPC: 1.955 cumulative IPC: 1.966 (Simulation time: 00 hr 46 min 26 sec)
Heartbeat CPU 0 instructions: 110000000 cycles: 42860114 heartbeat IPC: 2.045 cumulative IPC: 1.979 (Simulation time: 00 hr 51 min 51 sec)
Heartbeat CPU 0 instructions: 120000001 cycles: 48049819 heartbeat IPC: 1.927 cumulative IPC: 1.971 (Simulation time: 00 hr 57 min 14 sec)
Heartbeat CPU 0 instructions: 130000001 cycles: 53209581 heartbeat IPC: 1.938 cumulative IPC: 1.967 (Simulation time: 01 hr 02 min 35 sec)
Heartbeat CPU 0 instructions: 140000001 cycles: 58524967 heartbeat IPC: 1.881 cumulative IPC: 1.957 (Simulation time: 01 hr 08 min 02 sec)
Heartbeat CPU 0 instructions: 150000001 cycles: 63842812 heartbeat IPC: 1.88 cumulative IPC: 1.949 (Simulation time: 01 hr 13 min 26 sec)
Heartbeat CPU 0 instructions: 160000004 cycles: 69053176 heartbeat IPC: 1.919 cumulative IPC: 1.946 (Simulation time: 01 hr 18 min 50 sec)
Heartbeat CPU 0 instructions: 170000000 cycles: 79655827 heartbeat IPC: 0.9432 cumulative IPC: 1.788 (Simulation time: 01 hr 27 min 39 sec)
Heartbeat CPU 0 instructions: 180000004 cycles: 90303054 heartbeat IPC: 0.9392 cumulative IPC: 1.672 (Simulation time: 01 hr 36 min 49 sec)
Heartbeat CPU 0 instructions: 190000001 cycles: 100999719 heartbeat IPC: 0.9349 cumulative IPC: 1.583 (Simulation time: 01 hr 45 min 55 sec)
Heartbeat CPU 0 instructions: 200000003 cycles: 105770480 heartbeat IPC: 2.096 cumulative IPC: 1.609 (Simulation time: 01 hr 51 min 05 sec)
Heartbeat CPU 0 instructions: 210000001 cycles: 110697401 heartbeat IPC: 2.03 cumulative IPC: 1.63 (Simulation time: 01 hr 56 min 25 sec)
Heartbeat CPU 0 instructions: 220000000 cycles: 115531159 heartbeat IPC: 2.069 cumulative IPC: 1.651 (Simulation time: 02 hr 01 min 38 sec)
Heartbeat CPU 0 instructions: 230000002 cycles: 120854933 heartbeat IPC: 1.878 cumulative IPC: 1.662 (Simulation time: 02 hr 07 min 03 sec)
Heartbeat CPU 0 instructions: 240000000 cycles: 125704931 heartbeat IPC: 2.062 cumulative IPC: 1.679 (Simulation time: 02 hr 12 min 19 sec)
Heartbeat CPU 0 instructions: 250000000 cycles: 130861090 heartbeat IPC: 1.939 cumulative IPC: 1.69 (Simulation time: 02 hr 17 min 43 sec)
Heartbeat CPU 0 instructions: 260000000 cycles: 135886729 heartbeat IPC: 1.99 cumulative IPC: 1.702 (Simulation time: 02 hr 23 min 00 sec)
Heartbeat CPU 0 instructions: 270000002 cycles: 140778009 heartbeat IPC: 2.044 cumulative IPC: 1.716 (Simulation time: 02 hr 28 min 13 sec)
Heartbeat CPU 0 instructions: 280000002 cycles: 145689009 heartbeat IPC: 2.036 cumulative IPC: 1.727 (Simulation time: 02 hr 33 min 26 sec)
Heartbeat CPU 0 instructions: 290000001 cycles: 151054998 heartbeat IPC: 1.864 cumulative IPC: 1.733 (Simulation time: 02 hr 38 min 59 sec)
Heartbeat CPU 0 instructions: 300000003 cycles: 156117493 heartbeat IPC: 1.975 cumulative IPC: 1.741 (Simulation time: 02 hr 44 min 20 sec)
Heartbeat CPU 0 instructions: 310000001 cycles: 161415702 heartbeat IPC: 1.887 cumulative IPC: 1.746 (Simulation time: 02 hr 49 min 48 sec)
Heartbeat CPU 0 instructions: 320000003 cycles: 166628454 heartbeat IPC: 1.918 cumulative IPC: 1.752 (Simulation time: 02 hr 55 min 08 sec)
Heartbeat CPU 0 instructions: 330000003 cycles: 171929681 heartbeat IPC: 1.886 cumulative IPC: 1.757 (Simulation time: 03 hr 00 min 34 sec)
Heartbeat CPU 0 instructions: 340000000 cycles: 182758582 heartbeat IPC: 0.9235 cumulative IPC: 1.704 (Simulation time: 03 hr 09 min 40 sec)
Heartbeat CPU 0 instructions: 350000000 cycles: 194087327 heartbeat IPC: 0.8827 cumulative IPC: 1.652 (Simulation time: 03 hr 19 min 14 sec)
Heartbeat CPU 0 instructions: 360000004 cycles: 204836332 heartbeat IPC: 0.9303 cumulative IPC: 1.612 (Simulation time: 03 hr 28 min 20 sec)
Heartbeat CPU 0 instructions: 370000000 cycles: 209248062 heartbeat IPC: 2.267 cumulative IPC: 1.627 (Simulation time: 03 hr 33 min 16 sec)
Heartbeat CPU 0 instructions: 380000001 cycles: 214172635 heartbeat IPC: 2.031 cumulative IPC: 1.637 (Simulation time: 03 hr 38 min 34 sec)
Heartbeat CPU 0 instructions: 390000002 cycles: 219001124 heartbeat IPC: 2.071 cumulative IPC: 1.647 (Simulation time: 03 hr 43 min 46 sec)
Heartbeat CPU 0 instructions: 400000004 cycles: 223937619 heartbeat IPC: 2.026 cumulative IPC: 1.656 (Simulation time: 03 hr 49 min 01 sec)
Heartbeat CPU 0 instructions: 410000000 cycles: 228665633 heartbeat IPC: 2.115 cumulative IPC: 1.666 (Simulation time: 03 hr 54 min 05 sec)
Heartbeat CPU 0 instructions: 420000000 cycles: 233826937 heartbeat IPC: 1.937 cumulative IPC: 1.672 (Simulation time: 03 hr 59 min 25 sec)
Heartbeat CPU 0 instructions: 430000001 cycles: 238296460 heartbeat IPC: 2.237 cumulative IPC: 1.683 (Simulation time: 04 hr 04 min 27 sec)
Heartbeat CPU 0 instructions: 440000000 cycles: 243646505 heartbeat IPC: 1.869 cumulative IPC: 1.688 (Simulation time: 04 hr 09 min 55 sec)
Heartbeat CPU 0 instructions: 450000002 cycles: 248315331 heartbeat IPC: 2.142 cumulative IPC: 1.697 (Simulation time: 04 hr 15 min 03 sec)
Heartbeat CPU 0 instructions: 460000000 cycles: 253105939 heartbeat IPC: 2.087 cumulative IPC: 1.704 (Simulation time: 04 hr 20 min 12 sec)
Heartbeat CPU 0 instructions: 470000000 cycles: 258082214 heartbeat IPC: 2.01 cumulative IPC: 1.71 (Simulation time: 04 hr 25 min 28 sec)
Heartbeat CPU 0 instructions: 480000003 cycles: 262875928 heartbeat IPC: 2.086 cumulative IPC: 1.718 (Simulation time: 04 hr 30 min 39 sec)
Heartbeat CPU 0 instructions: 490000000 cycles: 267488643 heartbeat IPC: 2.168 cumulative IPC: 1.726 (Simulation time: 04 hr 35 min 42 sec)
Heartbeat CPU 0 instructions: 500000000 cycles: 272504573 heartbeat IPC: 1.994 cumulative IPC: 1.731 (Simulation time: 04 hr 41 min 06 sec)
Heartbeat CPU 0 instructions: 510000003 cycles: 278128296 heartbeat IPC: 1.778 cumulative IPC: 1.732 (Simulation time: 04 hr 46 min 44 sec)
Heartbeat CPU 0 instructions: 520000001 cycles: 282818734 heartbeat IPC: 2.132 cumulative IPC: 1.739 (Simulation time: 04 hr 51 min 53 sec)
Heartbeat CPU 0 instructions: 530000002 cycles: 287963963 heartbeat IPC: 1.944 cumulative IPC: 1.743 (Simulation time: 04 hr 57 min 16 sec)
Heartbeat CPU 0 instructions: 540000000 cycles: 293081584 heartbeat IPC: 1.954 cumulative IPC: 1.747 (Simulation time: 05 hr 02 min 37 sec)
Heartbeat CPU 0 instructions: 550000001 cycles: 297889360 heartbeat IPC: 2.08 cumulative IPC: 1.752 (Simulation time: 05 hr 07 min 51 sec)
Heartbeat CPU 0 instructions: 560000000 cycles: 303104986 heartbeat IPC: 1.917 cumulative IPC: 1.755 (Simulation time: 05 hr 13 min 20 sec)
Heartbeat CPU 0 instructions: 570000004 cycles: 310595225 heartbeat IPC: 1.335 cumulative IPC: 1.745 (Simulation time: 05 hr 20 min 21 sec)
Heartbeat CPU 0 instructions: 580000003 cycles: 322613981 heartbeat IPC: 0.832 cumulative IPC: 1.709 (Simulation time: 05 hr 30 min 19 sec)
Heartbeat CPU 0 instructions: 590000002 cycles: 336007308 heartbeat IPC: 0.7466 cumulative IPC: 1.669 (Simulation time: 05 hr 41 min 23 sec)
Heartbeat CPU 0 instructions: 600000000 cycles: 340586375 heartbeat IPC: 2.184 cumulative IPC: 1.677 (Simulation time: 05 hr 46 min 26 sec)
Heartbeat CPU 0 instructions: 610000002 cycles: 345077680 heartbeat IPC: 2.227 cumulative IPC: 1.684 (Simulation time: 05 hr 51 min 34 sec)
Heartbeat CPU 0 instructions: 620000000 cycles: 349884601 heartbeat IPC: 2.08 cumulative IPC: 1.69 (Simulation time: 05 hr 56 min 54 sec)
Heartbeat CPU 0 instructions: 630000002 cycles: 354972440 heartbeat IPC: 1.965 cumulative IPC: 1.694 (Simulation time: 06 hr 02 min 24 sec)
Heartbeat CPU 0 instructions: 640000001 cycles: 359824468 heartbeat IPC: 2.061 cumulative IPC: 1.699 (Simulation time: 06 hr 08 min 02 sec)
Heartbeat CPU 0 instructions: 650000000 cycles: 364382328 heartbeat IPC: 2.194 cumulative IPC: 1.705 (Simulation time: 06 hr 13 min 09 sec)
Simulation finished CPU 0 instructions: 600000001 cycles: 351845242 cumulative IPC: 1.705 (Simulation time: 06 hr 13 min 09 sec)
Simulation complete CPU 0 instructions: 600000001 cycles: 351845242 cumulative IPC: 1.705 (Simulation time: 06 hr 13 min 09 sec)

ChampSim completed all CPUs

=== Simulation ===
CPU 0 runs traces/400.perlbench-41B.champsimtrace.xz
Region of Interest Statistics

CPU 0 cumulative IPC: 1.705 instructions: 600000001 cycles: 351845242
CPU 0 Branch Prediction Accuracy: 93.95% MPKI: 12.5 Average ROB Occupancy at Mispredict: 29.6
Branch type MPKI
BRANCH_DIRECT_JUMP: 0.0123
BRANCH_INDIRECT: 0.323
BRANCH_CONDITIONAL: 12
BRANCH_DIRECT_CALL: 0.0043
BRANCH_INDIRECT_CALL: 0.2
BRANCH_RETURN: 0.00828

LLC TOTAL        ACCESS:     465813 HIT:     175462 MISS:     290351
LLC LOAD         ACCESS:     309558 HIT:      75792 MISS:     233766
LLC RFO          ACCESS:      25084 HIT:       8516 MISS:      16568
LLC PREFETCH     ACCESS:      50848 HIT:      22044 MISS:      28804
LLC WRITE        ACCESS:      64546 HIT:      63645 MISS:        901
LLC TRANSLATION  ACCESS:      15777 HIT:       5465 MISS:      10312
LLC PREFETCH REQUESTED:      50848 ISSUED:      50848 USEFUL:      18226 USELESS:       6859
LLC AVERAGE MISS LATENCY: 573 cycles
cpu0_DTLB TOTAL        ACCESS:  153668891 HIT:  152991915 MISS:     676976
cpu0_DTLB LOAD         ACCESS:  153668891 HIT:  152991915 MISS:     676976
cpu0_DTLB RFO          ACCESS:          0 HIT:          0 MISS:          0
cpu0_DTLB PREFETCH     ACCESS:          0 HIT:          0 MISS:          0
cpu0_DTLB WRITE        ACCESS:          0 HIT:          0 MISS:          0
cpu0_DTLB TRANSLATION  ACCESS:          0 HIT:          0 MISS:          0
cpu0_DTLB PREFETCH REQUESTED:          0 ISSUED:          0 USEFUL:          0 USELESS:          0
cpu0_DTLB AVERAGE MISS LATENCY: 16.07 cycles
cpu0_ITLB TOTAL        ACCESS:    4836681 HIT:    4778641 MISS:      58040
cpu0_ITLB LOAD         ACCESS:    4836681 HIT:    4778641 MISS:      58040
cpu0_ITLB RFO          ACCESS:          0 HIT:          0 MISS:          0
cpu0_ITLB PREFETCH     ACCESS:          0 HIT:          0 MISS:          0
cpu0_ITLB WRITE        ACCESS:          0 HIT:          0 MISS:          0
cpu0_ITLB TRANSLATION  ACCESS:          0 HIT:          0 MISS:          0
cpu0_ITLB PREFETCH REQUESTED:          0 ISSUED:          0 USEFUL:          0 USELESS:          0
cpu0_ITLB AVERAGE MISS LATENCY: 7.468 cycles
cpu0_L1D TOTAL        ACCESS:  200290626 HIT:  198954852 MISS:    1335774
cpu0_L1D LOAD         ACCESS:  117047111 HIT:  116023072 MISS:    1024039
cpu0_L1D RFO          ACCESS:          0 HIT:          0 MISS:          0
cpu0_L1D PREFETCH     ACCESS:          0 HIT:          0 MISS:          0
cpu0_L1D WRITE        ACCESS:   83219050 HIT:   82930202 MISS:     288848
cpu0_L1D TRANSLATION  ACCESS:      24465 HIT:       1578 MISS:      22887
cpu0_L1D PREFETCH REQUESTED:          0 ISSUED:          0 USEFUL:          0 USELESS:          0
cpu0_L1D AVERAGE MISS LATENCY: 113.7 cycles
cpu0_L1I TOTAL        ACCESS:    5578753 HIT:    4816587 MISS:     762166
cpu0_L1I LOAD         ACCESS:    5578753 HIT:    4816587 MISS:     762166
cpu0_L1I RFO          ACCESS:          0 HIT:          0 MISS:          0
cpu0_L1I PREFETCH     ACCESS:          0 HIT:          0 MISS:          0
cpu0_L1I WRITE        ACCESS:          0 HIT:          0 MISS:          0
cpu0_L1I TRANSLATION  ACCESS:          0 HIT:          0 MISS:          0
cpu0_L1I PREFETCH REQUESTED:          0 ISSUED:          0 USEFUL:          0 USELESS:          0
cpu0_L1I AVERAGE MISS LATENCY: 14.83 cycles
cpu0_L2C TOTAL        ACCESS:    1382519 HIT:    1031238 MISS:     351281
cpu0_L2C LOAD         ACCESS:    1125647 HIT:     816089 MISS:     309558
cpu0_L2C RFO          ACCESS:      63921 HIT:      38837 MISS:      25084
cpu0_L2C PREFETCH     ACCESS:          0 HIT:          0 MISS:          0
cpu0_L2C WRITE        ACCESS:     170142 HIT:     169280 MISS:        862
cpu0_L2C TRANSLATION  ACCESS:      22809 HIT:       7032 MISS:      15777
cpu0_L2C PREFETCH REQUESTED:          0 ISSUED:          0 USEFUL:          0 USELESS:          0
cpu0_L2C AVERAGE MISS LATENCY: 443 cycles
cpu0_STLB TOTAL        ACCESS:     505116 HIT:     482325 MISS:      22791
cpu0_STLB LOAD         ACCESS:     505116 HIT:     482325 MISS:      22791
cpu0_STLB RFO          ACCESS:          0 HIT:          0 MISS:          0
cpu0_STLB PREFETCH     ACCESS:          0 HIT:          0 MISS:          0
cpu0_STLB WRITE        ACCESS:          0 HIT:          0 MISS:          0
cpu0_STLB TRANSLATION  ACCESS:          0 HIT:          0 MISS:          0
cpu0_STLB PREFETCH REQUESTED:          0 ISSUED:          0 USEFUL:          0 USELESS:          0
cpu0_STLB AVERAGE MISS LATENCY: 357.2 cycles

DRAM Statistics

Channel 0 RQ ROW_BUFFER_HIT:      47722
  ROW_BUFFER_MISS:     236338
 AVG DBUS CONGESTED CYCLE: 3.827
WQ ROW_BUFFER_HIT: Channel 0 
  ROW_BUFFER_MISS:       6980
  FULL:      38625
