WARNING: physical memory size is smaller than virtual memory size.

*** ChampSim Multicore Out-of-Order Simulator ***
Warmup Instructions: 50000000
Simulation Instructions: 600000000
Number of CPUs: 1
Page size: 4096

CPU 0 Tage branch predictor
Off-chip DRAM Size: 4 GiB Channels: 1 Width: 64-bit Data Race: 3200 MT/s
Heartbeat CPU 0 instructions: 10000000 cycles: 2500061 heartbeat IPC: 4 cumulative IPC: 4 (Simulation time: 00 hr 03 min 50 sec)
Heartbeat CPU 0 instructions: 20000000 cycles: 5000061 heartbeat IPC: 4 cumulative IPC: 4 (Simulation time: 00 hr 07 min 31 sec)
Heartbeat CPU 0 instructions: 30000000 cycles: 7500061 heartbeat IPC: 4 cumulative IPC: 4 (Simulation time: 00 hr 10 min 57 sec)
Heartbeat CPU 0 instructions: 40000000 cycles: 10000061 heartbeat IPC: 4 cumulative IPC: 4 (Simulation time: 00 hr 14 min 12 sec)
Heartbeat CPU 0 instructions: 50000000 cycles: 12500061 heartbeat IPC: 4 cumulative IPC: 4 (Simulation time: 00 hr 17 min 28 sec)
Warmup finished CPU 0 instructions: 50000000 cycles: 12500062 cumulative IPC: 4 (Simulation time: 00 hr 17 min 28 sec)
Warmup complete CPU 0 instructions: 50000000 cycles: 12500062 cumulative IPC: 4 (Simulation time: 00 hr 17 min 28 sec)
Heartbeat CPU 0 instructions: 60000004 cycles: 15503998 heartbeat IPC: 3.329 cumulative IPC: 3.329 (Simulation time: 00 hr 21 min 12 sec)
Heartbeat CPU 0 instructions: 70000003 cycles: 18369852 heartbeat IPC: 3.489 cumulative IPC: 3.407 (Simulation time: 00 hr 24 min 42 sec)
Heartbeat CPU 0 instructions: 80000002 cycles: 21380918 heartbeat IPC: 3.321 cumulative IPC: 3.378 (Simulation time: 00 hr 28 min 09 sec)
Heartbeat CPU 0 instructions: 90000000 cycles: 24098695 heartbeat IPC: 3.679 cumulative IPC: 3.449 (Simulation time: 00 hr 31 min 21 sec)
Heartbeat CPU 0 instructions: 100000003 cycles: 26855195 heartbeat IPC: 3.628 cumulative IPC: 3.483 (Simulation time: 00 hr 34 min 20 sec)
Heartbeat CPU 0 instructions: 110000001 cycles: 29752526 heartbeat IPC: 3.451 cumulative IPC: 3.478 (Simulation time: 00 hr 37 min 25 sec)
Heartbeat CPU 0 instructions: 120000001 cycles: 32468927 heartbeat IPC: 3.681 cumulative IPC: 3.505 (Simulation time: 00 hr 40 min 31 sec)
Heartbeat CPU 0 instructions: 130000003 cycles: 35368195 heartbeat IPC: 3.449 cumulative IPC: 3.498 (Simulation time: 00 hr 43 min 29 sec)
Heartbeat CPU 0 instructions: 140000002 cycles: 38202123 heartbeat IPC: 3.529 cumulative IPC: 3.502 (Simulation time: 00 hr 46 min 38 sec)
Heartbeat CPU 0 instructions: 150000001 cycles: 40972190 heartbeat IPC: 3.61 cumulative IPC: 3.512 (Simulation time: 00 hr 49 min 43 sec)
Heartbeat CPU 0 instructions: 160000000 cycles: 43889670 heartbeat IPC: 3.428 cumulative IPC: 3.504 (Simulation time: 00 hr 52 min 54 sec)
Heartbeat CPU 0 instructions: 170000001 cycles: 46817544 heartbeat IPC: 3.415 cumulative IPC: 3.497 (Simulation time: 00 hr 55 min 58 sec)
Heartbeat CPU 0 instructions: 180000000 cycles: 49608288 heartbeat IPC: 3.583 cumulative IPC: 3.503 (Simulation time: 00 hr 59 min 08 sec)
Heartbeat CPU 0 instructions: 190000002 cycles: 52316250 heartbeat IPC: 3.693 cumulative IPC: 3.516 (Simulation time: 01 hr 02 min 06 sec)
Heartbeat CPU 0 instructions: 200000002 cycles: 55136667 heartbeat IPC: 3.546 cumulative IPC: 3.518 (Simulation time: 01 hr 05 min 19 sec)
Heartbeat CPU 0 instructions: 210000000 cycles: 58029132 heartbeat IPC: 3.457 cumulative IPC: 3.514 (Simulation time: 01 hr 08 min 30 sec)
Heartbeat CPU 0 instructions: 220000001 cycles: 60780710 heartbeat IPC: 3.634 cumulative IPC: 3.521 (Simulation time: 01 hr 11 min 26 sec)
Heartbeat CPU 0 instructions: 230000002 cycles: 63669875 heartbeat IPC: 3.461 cumulative IPC: 3.518 (Simulation time: 01 hr 14 min 33 sec)
Heartbeat CPU 0 instructions: 240000004 cycles: 66620620 heartbeat IPC: 3.389 cumulative IPC: 3.511 (Simulation time: 01 hr 17 min 45 sec)
Heartbeat CPU 0 instructions: 250000003 cycles: 69511056 heartbeat IPC: 3.46 cumulative IPC: 3.508 (Simulation time: 01 hr 20 min 53 sec)
Heartbeat CPU 0 instructions: 260000001 cycles: 72295558 heartbeat IPC: 3.591 cumulative IPC: 3.512 (Simulation time: 01 hr 23 min 53 sec)
Heartbeat CPU 0 instructions: 270000002 cycles: 78088663 heartbeat IPC: 1.726 cumulative IPC: 3.354 (Simulation time: 01 hr 28 min 12 sec)
Heartbeat CPU 0 instructions: 280000000 cycles: 86689683 heartbeat IPC: 1.163 cumulative IPC: 3.1 (Simulation time: 01 hr 33 min 56 sec)
Heartbeat CPU 0 instructions: 290000000 cycles: 93784057 heartbeat IPC: 1.41 cumulative IPC: 2.953 (Simulation time: 01 hr 38 min 56 sec)
Heartbeat CPU 0 instructions: 300000003 cycles: 98853337 heartbeat IPC: 1.973 cumulative IPC: 2.895 (Simulation time: 01 hr 43 min 19 sec)
Heartbeat CPU 0 instructions: 310000001 cycles: 106922370 heartbeat IPC: 1.239 cumulative IPC: 2.754 (Simulation time: 01 hr 49 min 04 sec)
Heartbeat CPU 0 instructions: 320000004 cycles: 110679682 heartbeat IPC: 2.661 cumulative IPC: 2.75 (Simulation time: 01 hr 52 min 44 sec)
Heartbeat CPU 0 instructions: 330000000 cycles: 113822387 heartbeat IPC: 3.182 cumulative IPC: 2.763 (Simulation time: 01 hr 56 min 02 sec)
Heartbeat CPU 0 instructions: 340000001 cycles: 116928815 heartbeat IPC: 3.219 cumulative IPC: 2.777 (Simulation time: 01 hr 59 min 14 sec)
Heartbeat CPU 0 instructions: 350000000 cycles: 120197790 heartbeat IPC: 3.059 cumulative IPC: 2.786 (Simulation time: 02 hr 02 min 41 sec)
Heartbeat CPU 0 instructions: 360000004 cycles: 123278188 heartbeat IPC: 3.246 cumulative IPC: 2.798 (Simulation time: 02 hr 05 min 50 sec)
Heartbeat CPU 0 instructions: 370000001 cycles: 126327709 heartbeat IPC: 3.279 cumulative IPC: 2.811 (Simulation time: 02 hr 09 min 04 sec)
Heartbeat CPU 0 instructions: 380000004 cycles: 129391368 heartbeat IPC: 3.264 cumulative IPC: 2.823 (Simulation time: 02 hr 12 min 18 sec)
Heartbeat CPU 0 instructions: 390000002 cycles: 132588878 heartbeat IPC: 3.127 cumulative IPC: 2.831 (Simulation time: 02 hr 15 min 36 sec)
Heartbeat CPU 0 instructions: 400000000 cycles: 135825535 heartbeat IPC: 3.09 cumulative IPC: 2.838 (Simulation time: 02 hr 19 min 05 sec)
Heartbeat CPU 0 instructions: 410000000 cycles: 141368709 heartbeat IPC: 1.804 cumulative IPC: 2.794 (Simulation time: 02 hr 23 min 20 sec)
Heartbeat CPU 0 instructions: 420000003 cycles: 148903608 heartbeat IPC: 1.327 cumulative IPC: 2.713 (Simulation time: 02 hr 28 min 36 sec)
Heartbeat CPU 0 instructions: 430000004 cycles: 154029277 heartbeat IPC: 1.951 cumulative IPC: 2.685 (Simulation time: 02 hr 33 min 02 sec)
Heartbeat CPU 0 instructions: 440000004 cycles: 158993093 heartbeat IPC: 2.015 cumulative IPC: 2.662 (Simulation time: 02 hr 37 min 08 sec)
Heartbeat CPU 0 instructions: 450000000 cycles: 163728531 heartbeat IPC: 2.112 cumulative IPC: 2.645 (Simulation time: 02 hr 41 min 14 sec)
Heartbeat CPU 0 instructions: 460000002 cycles: 171499371 heartbeat IPC: 1.287 cumulative IPC: 2.579 (Simulation time: 02 hr 46 min 37 sec)
Heartbeat CPU 0 instructions: 470000003 cycles: 178620772 heartbeat IPC: 1.404 cumulative IPC: 2.528 (Simulation time: 02 hr 51 min 46 sec)
Heartbeat CPU 0 instructions: 480000000 cycles: 181962884 heartbeat IPC: 2.992 cumulative IPC: 2.537 (Simulation time: 02 hr 55 min 06 sec)
Heartbeat CPU 0 instructions: 490000001 cycles: 185456225 heartbeat IPC: 2.863 cumulative IPC: 2.544 (Simulation time: 02 hr 58 min 43 sec)
Heartbeat CPU 0 instructions: 500000002 cycles: 188852167 heartbeat IPC: 2.945 cumulative IPC: 2.552 (Simulation time: 03 hr 02 min 10 sec)
Heartbeat CPU 0 instructions: 510000000 cycles: 192209489 heartbeat IPC: 2.979 cumulative IPC: 2.56 (Simulation time: 03 hr 05 min 37 sec)
Heartbeat CPU 0 instructions: 520000000 cycles: 195596412 heartbeat IPC: 2.953 cumulative IPC: 2.567 (Simulation time: 03 hr 09 min 00 sec)
Heartbeat CPU 0 instructions: 530000001 cycles: 203309407 heartbeat IPC: 1.297 cumulative IPC: 2.516 (Simulation time: 03 hr 14 min 05 sec)
Heartbeat CPU 0 instructions: 540000000 cycles: 210762039 heartbeat IPC: 1.342 cumulative IPC: 2.471 (Simulation time: 03 hr 19 min 13 sec)
Heartbeat CPU 0 instructions: 550000004 cycles: 220017244 heartbeat IPC: 1.08 cumulative IPC: 2.409 (Simulation time: 03 hr 24 min 54 sec)
Heartbeat CPU 0 instructions: 560000004 cycles: 223543111 heartbeat IPC: 2.836 cumulative IPC: 2.417 (Simulation time: 03 hr 27 min 56 sec)
Heartbeat CPU 0 instructions: 570000002 cycles: 226364696 heartbeat IPC: 3.544 cumulative IPC: 2.431 (Simulation time: 03 hr 30 min 18 sec)
Heartbeat CPU 0 instructions: 580000000 cycles: 229281076 heartbeat IPC: 3.429 cumulative IPC: 2.445 (Simulation time: 03 hr 32 min 41 sec)
Heartbeat CPU 0 instructions: 590000001 cycles: 232204208 heartbeat IPC: 3.421 cumulative IPC: 2.458 (Simulation time: 03 hr 35 min 01 sec)
Heartbeat CPU 0 instructions: 600000003 cycles: 234895327 heartbeat IPC: 3.716 cumulative IPC: 2.473 (Simulation time: 03 hr 37 min 02 sec)
Heartbeat CPU 0 instructions: 610000001 cycles: 237755286 heartbeat IPC: 3.497 cumulative IPC: 2.486 (Simulation time: 03 hr 38 min 27 sec)
Heartbeat CPU 0 instructions: 620000004 cycles: 240704540 heartbeat IPC: 3.391 cumulative IPC: 2.498 (Simulation time: 03 hr 39 min 45 sec)
Heartbeat CPU 0 instructions: 630000002 cycles: 243512385 heartbeat IPC: 3.561 cumulative IPC: 2.511 (Simulation time: 03 hr 40 min 50 sec)
Heartbeat CPU 0 instructions: 640000004 cycles: 246553586 heartbeat IPC: 3.288 cumulative IPC: 2.521 (Simulation time: 03 hr 41 min 51 sec)
Heartbeat CPU 0 instructions: 650000001 cycles: 249260480 heartbeat IPC: 3.694 cumulative IPC: 2.534 (Simulation time: 03 hr 42 min 31 sec)
Simulation finished CPU 0 instructions: 600000001 cycles: 236760419 cumulative IPC: 2.534 (Simulation time: 03 hr 42 min 31 sec)
Simulation complete CPU 0 instructions: 600000001 cycles: 236760419 cumulative IPC: 2.534 (Simulation time: 03 hr 42 min 31 sec)

ChampSim completed all CPUs

=== Simulation ===
CPU 0 runs traces/400.perlbench-50B.champsimtrace.xz
Region of Interest Statistics

CPU 0 cumulative IPC: 2.534 instructions: 600000001 cycles: 236760419
CPU 0 Branch Prediction Accuracy: 99.01% MPKI: 2.04 Average ROB Occupancy at Mispredict: 93.72
Branch type MPKI
BRANCH_DIRECT_JUMP: 0.0176
BRANCH_INDIRECT: 0.38
BRANCH_CONDITIONAL: 1.19
BRANCH_DIRECT_CALL: 0.0067
BRANCH_INDIRECT_CALL: 0.431
BRANCH_RETURN: 0.0161

LLC TOTAL        ACCESS:     510793 HIT:     227790 MISS:     283003
LLC LOAD         ACCESS:     376137 HIT:     124030 MISS:     252107
LLC RFO          ACCESS:      32720 HIT:      21631 MISS:      11089
LLC PREFETCH     ACCESS:          0 HIT:          0 MISS:          0
LLC WRITE        ACCESS:      83773 HIT:      78157 MISS:       5616
LLC TRANSLATION  ACCESS:      18163 HIT:       3972 MISS:      14191
LLC PREFETCH REQUESTED:          0 ISSUED:          0 USEFUL:          0 USELESS:          0
LLC AVERAGE MISS LATENCY: 524.6 cycles
cpu0_DTLB TOTAL        ACCESS:  133190121 HIT:  131840022 MISS:    1350099
cpu0_DTLB LOAD         ACCESS:  133190121 HIT:  131840022 MISS:    1350099
cpu0_DTLB RFO          ACCESS:          0 HIT:          0 MISS:          0
cpu0_DTLB PREFETCH     ACCESS:          0 HIT:          0 MISS:          0
cpu0_DTLB WRITE        ACCESS:          0 HIT:          0 MISS:          0
cpu0_DTLB TRANSLATION  ACCESS:          0 HIT:          0 MISS:          0
cpu0_DTLB PREFETCH REQUESTED:          0 ISSUED:          0 USEFUL:          0 USELESS:          0
cpu0_DTLB AVERAGE MISS LATENCY: 12.09 cycles
cpu0_ITLB TOTAL        ACCESS:    8998265 HIT:    8787861 MISS:     210404
cpu0_ITLB LOAD         ACCESS:    8998265 HIT:    8787861 MISS:     210404
cpu0_ITLB RFO          ACCESS:          0 HIT:          0 MISS:          0
cpu0_ITLB PREFETCH     ACCESS:          0 HIT:          0 MISS:          0
cpu0_ITLB WRITE        ACCESS:          0 HIT:          0 MISS:          0
cpu0_ITLB TRANSLATION  ACCESS:          0 HIT:          0 MISS:          0
cpu0_ITLB PREFETCH REQUESTED:          0 ISSUED:          0 USEFUL:          0 USELESS:          0
cpu0_ITLB AVERAGE MISS LATENCY: 3.036 cycles
cpu0_L1D TOTAL        ACCESS:  178260762 HIT:  175338237 MISS:    2922525
cpu0_L1D LOAD         ACCESS:   92743434 HIT:   90330313 MISS:    2413121
cpu0_L1D RFO          ACCESS:          0 HIT:          0 MISS:          0
cpu0_L1D PREFETCH     ACCESS:          0 HIT:          0 MISS:          0
cpu0_L1D WRITE        ACCESS:   85488792 HIT:   85005916 MISS:     482876
cpu0_L1D TRANSLATION  ACCESS:      28536 HIT:       2008 MISS:      26528
cpu0_L1D PREFETCH REQUESTED:          0 ISSUED:          0 USEFUL:          0 USELESS:          0
cpu0_L1D AVERAGE MISS LATENCY: 53.17 cycles
cpu0_L1I TOTAL        ACCESS:   10517493 HIT:    8616663 MISS:    1900830
cpu0_L1I LOAD         ACCESS:   10517493 HIT:    8616663 MISS:    1900830
cpu0_L1I RFO          ACCESS:          0 HIT:          0 MISS:          0
cpu0_L1I PREFETCH     ACCESS:          0 HIT:          0 MISS:          0
cpu0_L1I WRITE        ACCESS:          0 HIT:          0 MISS:          0
cpu0_L1I TRANSLATION  ACCESS:          0 HIT:          0 MISS:          0
cpu0_L1I PREFETCH REQUESTED:          0 ISSUED:          0 USEFUL:          0 USELESS:          0
cpu0_L1I AVERAGE MISS LATENCY: 9.228 cycles
cpu0_L2C TOTAL        ACCESS:    3236245 HIT:    2808292 MISS:     427953
cpu0_L2C LOAD         ACCESS:    2709184 HIT:    2333047 MISS:     376137
cpu0_L2C RFO          ACCESS:     135529 HIT:     102809 MISS:      32720
cpu0_L2C PREFETCH     ACCESS:          0 HIT:          0 MISS:          0
cpu0_L2C WRITE        ACCESS:     365084 HIT:     364151 MISS:        933
cpu0_L2C TRANSLATION  ACCESS:      26448 HIT:       8285 MISS:      18163
cpu0_L2C PREFETCH REQUESTED:          0 ISSUED:          0 USEFUL:          0 USELESS:          0
cpu0_L2C AVERAGE MISS LATENCY: 367.5 cycles
cpu0_STLB TOTAL        ACCESS:    1009690 HIT:     982997 MISS:      26693
cpu0_STLB LOAD         ACCESS:    1009690 HIT:     982997 MISS:      26693
cpu0_STLB RFO          ACCESS:          0 HIT:          0 MISS:          0
cpu0_STLB PREFETCH     ACCESS:          0 HIT:          0 MISS:          0
cpu0_STLB WRITE        ACCESS:          0 HIT:          0 MISS:          0
cpu0_STLB TRANSLATION  ACCESS:          0 HIT:          0 MISS:          0
cpu0_STLB PREFETCH REQUESTED:          0 ISSUED:          0 USEFUL:          0 USELESS:          0
cpu0_STLB AVERAGE MISS LATENCY: 410.3 cycles

DRAM Statistics

Channel 0 RQ ROW_BUFFER_HIT:      80135
  ROW_BUFFER_MISS:     197245
 AVG DBUS CONGESTED CYCLE: 3.749
WQ ROW_BUFFER_HIT: Channel 0 
  ROW_BUFFER_MISS:       2445
  FULL:       3249
