WARNING: physical memory size is smaller than virtual memory size.

*** ChampSim Multicore Out-of-Order Simulator ***
Warmup Instructions: 50000000
Simulation Instructions: 600000000
Number of CPUs: 1
Page size: 4096

CPU 0 Tage branch predictor
Off-chip DRAM Size: 4 GiB Channels: 1 Width: 64-bit Data Race: 3200 MT/s
Heartbeat CPU 0 instructions: 10000000 cycles: 2500061 heartbeat IPC: 4 cumulative IPC: 4 (Simulation time: 00 hr 04 min 17 sec)
Heartbeat CPU 0 instructions: 20000000 cycles: 5000061 heartbeat IPC: 4 cumulative IPC: 4 (Simulation time: 00 hr 08 min 39 sec)
Heartbeat CPU 0 instructions: 30000000 cycles: 7500061 heartbeat IPC: 4 cumulative IPC: 4 (Simulation time: 00 hr 13 min 12 sec)
Heartbeat CPU 0 instructions: 40000000 cycles: 10000061 heartbeat IPC: 4 cumulative IPC: 4 (Simulation time: 00 hr 17 min 39 sec)
Heartbeat CPU 0 instructions: 50000000 cycles: 12500061 heartbeat IPC: 4 cumulative IPC: 4 (Simulation time: 00 hr 22 min 05 sec)
Warmup finished CPU 0 instructions: 50000000 cycles: 12500062 cumulative IPC: 4 (Simulation time: 00 hr 22 min 05 sec)
Warmup complete CPU 0 instructions: 50000000 cycles: 12500062 cumulative IPC: 4 (Simulation time: 00 hr 22 min 05 sec)
Heartbeat CPU 0 instructions: 60000004 cycles: 15503998 heartbeat IPC: 3.329 cumulative IPC: 3.329 (Simulation time: 00 hr 27 min 21 sec)
Heartbeat CPU 0 instructions: 70000003 cycles: 18369852 heartbeat IPC: 3.489 cumulative IPC: 3.407 (Simulation time: 00 hr 32 min 21 sec)
Heartbeat CPU 0 instructions: 80000002 cycles: 21380918 heartbeat IPC: 3.321 cumulative IPC: 3.378 (Simulation time: 00 hr 37 min 21 sec)
Heartbeat CPU 0 instructions: 90000000 cycles: 24098695 heartbeat IPC: 3.679 cumulative IPC: 3.449 (Simulation time: 00 hr 42 min 13 sec)
Heartbeat CPU 0 instructions: 100000003 cycles: 26855195 heartbeat IPC: 3.628 cumulative IPC: 3.483 (Simulation time: 00 hr 47 min 09 sec)
Heartbeat CPU 0 instructions: 110000001 cycles: 29752526 heartbeat IPC: 3.451 cumulative IPC: 3.478 (Simulation time: 00 hr 52 min 14 sec)
Heartbeat CPU 0 instructions: 120000001 cycles: 32468927 heartbeat IPC: 3.681 cumulative IPC: 3.505 (Simulation time: 00 hr 56 min 58 sec)
Heartbeat CPU 0 instructions: 130000003 cycles: 35368195 heartbeat IPC: 3.449 cumulative IPC: 3.498 (Simulation time: 01 hr 01 min 53 sec)
Heartbeat CPU 0 instructions: 140000002 cycles: 38202123 heartbeat IPC: 3.529 cumulative IPC: 3.502 (Simulation time: 01 hr 06 min 42 sec)
Heartbeat CPU 0 instructions: 150000001 cycles: 40972190 heartbeat IPC: 3.61 cumulative IPC: 3.512 (Simulation time: 01 hr 11 min 30 sec)
Heartbeat CPU 0 instructions: 160000000 cycles: 43889670 heartbeat IPC: 3.428 cumulative IPC: 3.504 (Simulation time: 01 hr 16 min 25 sec)
Heartbeat CPU 0 instructions: 170000001 cycles: 46817544 heartbeat IPC: 3.415 cumulative IPC: 3.497 (Simulation time: 01 hr 21 min 19 sec)
Heartbeat CPU 0 instructions: 180000000 cycles: 49608288 heartbeat IPC: 3.583 cumulative IPC: 3.503 (Simulation time: 01 hr 26 min 12 sec)
Heartbeat CPU 0 instructions: 190000002 cycles: 52316250 heartbeat IPC: 3.693 cumulative IPC: 3.516 (Simulation time: 01 hr 31 min 02 sec)
Heartbeat CPU 0 instructions: 200000002 cycles: 55136667 heartbeat IPC: 3.546 cumulative IPC: 3.518 (Simulation time: 01 hr 35 min 52 sec)
Heartbeat CPU 0 instructions: 210000000 cycles: 58029132 heartbeat IPC: 3.457 cumulative IPC: 3.514 (Simulation time: 01 hr 40 min 42 sec)
Heartbeat CPU 0 instructions: 220000001 cycles: 60781160 heartbeat IPC: 3.634 cumulative IPC: 3.521 (Simulation time: 01 hr 45 min 41 sec)
Heartbeat CPU 0 instructions: 230000002 cycles: 63670325 heartbeat IPC: 3.461 cumulative IPC: 3.518 (Simulation time: 01 hr 50 min 38 sec)
Heartbeat CPU 0 instructions: 240000004 cycles: 66621070 heartbeat IPC: 3.389 cumulative IPC: 3.511 (Simulation time: 01 hr 55 min 31 sec)
Heartbeat CPU 0 instructions: 250000003 cycles: 69511506 heartbeat IPC: 3.46 cumulative IPC: 3.508 (Simulation time: 02 hr 00 min 23 sec)
Heartbeat CPU 0 instructions: 260000001 cycles: 72296913 heartbeat IPC: 3.59 cumulative IPC: 3.512 (Simulation time: 02 hr 05 min 12 sec)
Heartbeat CPU 0 instructions: 270000002 cycles: 78141758 heartbeat IPC: 1.711 cumulative IPC: 3.352 (Simulation time: 02 hr 12 min 06 sec)
Heartbeat CPU 0 instructions: 280000000 cycles: 87520278 heartbeat IPC: 1.066 cumulative IPC: 3.066 (Simulation time: 02 hr 21 min 41 sec)
Heartbeat CPU 0 instructions: 290000000 cycles: 95232829 heartbeat IPC: 1.297 cumulative IPC: 2.901 (Simulation time: 02 hr 30 min 07 sec)
Heartbeat CPU 0 instructions: 300000003 cycles: 100406512 heartbeat IPC: 1.933 cumulative IPC: 2.844 (Simulation time: 02 hr 37 min 03 sec)
Heartbeat CPU 0 instructions: 310000001 cycles: 108523382 heartbeat IPC: 1.232 cumulative IPC: 2.708 (Simulation time: 02 hr 46 min 03 sec)
Heartbeat CPU 0 instructions: 320000004 cycles: 112276691 heartbeat IPC: 2.664 cumulative IPC: 2.706 (Simulation time: 02 hr 51 min 44 sec)
Heartbeat CPU 0 instructions: 330000000 cycles: 115435120 heartbeat IPC: 3.166 cumulative IPC: 2.72 (Simulation time: 02 hr 56 min 54 sec)
Heartbeat CPU 0 instructions: 340000001 cycles: 118623871 heartbeat IPC: 3.136 cumulative IPC: 2.733 (Simulation time: 03 hr 02 min 08 sec)
Heartbeat CPU 0 instructions: 350000000 cycles: 121964802 heartbeat IPC: 2.993 cumulative IPC: 2.741 (Simulation time: 03 hr 07 min 26 sec)
Heartbeat CPU 0 instructions: 360000004 cycles: 125111080 heartbeat IPC: 3.178 cumulative IPC: 2.753 (Simulation time: 03 hr 12 min 34 sec)
Heartbeat CPU 0 instructions: 370000001 cycles: 128202956 heartbeat IPC: 3.234 cumulative IPC: 2.766 (Simulation time: 03 hr 17 min 38 sec)
Heartbeat CPU 0 instructions: 380000004 cycles: 131306328 heartbeat IPC: 3.222 cumulative IPC: 2.778 (Simulation time: 03 hr 22 min 45 sec)
Heartbeat CPU 0 instructions: 390000002 cycles: 134574761 heartbeat IPC: 3.06 cumulative IPC: 2.785 (Simulation time: 03 hr 28 min 01 sec)
Heartbeat CPU 0 instructions: 400000000 cycles: 137876349 heartbeat IPC: 3.029 cumulative IPC: 2.792 (Simulation time: 03 hr 33 min 18 sec)
Heartbeat CPU 0 instructions: 410000000 cycles: 144227513 heartbeat IPC: 1.575 cumulative IPC: 2.733 (Simulation time: 03 hr 40 min 39 sec)
Heartbeat CPU 0 instructions: 420000003 cycles: 153246632 heartbeat IPC: 1.109 cumulative IPC: 2.629 (Simulation time: 03 hr 49 min 56 sec)
Heartbeat CPU 0 instructions: 430000004 cycles: 158956515 heartbeat IPC: 1.751 cumulative IPC: 2.595 (Simulation time: 03 hr 57 min 08 sec)
Heartbeat CPU 0 instructions: 440000004 cycles: 163869165 heartbeat IPC: 2.036 cumulative IPC: 2.576 (Simulation time: 04 hr 03 min 48 sec)
Heartbeat CPU 0 instructions: 450000000 cycles: 168591062 heartbeat IPC: 2.118 cumulative IPC: 2.563 (Simulation time: 04 hr 10 min 11 sec)
Heartbeat CPU 0 instructions: 460000002 cycles: 176661814 heartbeat IPC: 1.239 cumulative IPC: 2.498 (Simulation time: 04 hr 18 min 53 sec)
Heartbeat CPU 0 instructions: 470000003 cycles: 184101124 heartbeat IPC: 1.344 cumulative IPC: 2.448 (Simulation time: 04 hr 27 min 08 sec)
Heartbeat CPU 0 instructions: 480000000 cycles: 187502884 heartbeat IPC: 2.94 cumulative IPC: 2.457 (Simulation time: 04 hr 32 min 29 sec)
Heartbeat CPU 0 instructions: 490000001 cycles: 191125599 heartbeat IPC: 2.76 cumulative IPC: 2.463 (Simulation time: 04 hr 38 min 02 sec)
Heartbeat CPU 0 instructions: 500000002 cycles: 194635665 heartbeat IPC: 2.849 cumulative IPC: 2.471 (Simulation time: 04 hr 43 min 26 sec)
Heartbeat CPU 0 instructions: 510000000 cycles: 198088364 heartbeat IPC: 2.896 cumulative IPC: 2.479 (Simulation time: 04 hr 48 min 50 sec)
Heartbeat CPU 0 instructions: 520000000 cycles: 201558840 heartbeat IPC: 2.881 cumulative IPC: 2.486 (Simulation time: 04 hr 54 min 09 sec)
Heartbeat CPU 0 instructions: 530000001 cycles: 210888107 heartbeat IPC: 1.072 cumulative IPC: 2.42 (Simulation time: 05 hr 03 min 37 sec)
Heartbeat CPU 0 instructions: 540000000 cycles: 219873500 heartbeat IPC: 1.113 cumulative IPC: 2.363 (Simulation time: 05 hr 13 min 02 sec)
Heartbeat CPU 0 instructions: 550000004 cycles: 229901067 heartbeat IPC: 0.9973 cumulative IPC: 2.3 (Simulation time: 05 hr 23 min 03 sec)
Heartbeat CPU 0 instructions: 560000004 cycles: 233531486 heartbeat IPC: 2.755 cumulative IPC: 2.307 (Simulation time: 05 hr 28 min 27 sec)
Heartbeat CPU 0 instructions: 570000002 cycles: 236352084 heartbeat IPC: 3.545 cumulative IPC: 2.323 (Simulation time: 05 hr 33 min 21 sec)
Heartbeat CPU 0 instructions: 580000000 cycles: 239276233 heartbeat IPC: 3.42 cumulative IPC: 2.337 (Simulation time: 05 hr 38 min 16 sec)
Heartbeat CPU 0 instructions: 590000001 cycles: 242202403 heartbeat IPC: 3.417 cumulative IPC: 2.351 (Simulation time: 05 hr 43 min 12 sec)
Heartbeat CPU 0 instructions: 600000003 cycles: 244894829 heartbeat IPC: 3.714 cumulative IPC: 2.367 (Simulation time: 05 hr 48 min 03 sec)
Heartbeat CPU 0 instructions: 610000001 cycles: 247758881 heartbeat IPC: 3.492 cumulative IPC: 2.38 (Simulation time: 05 hr 53 min 00 sec)
Heartbeat CPU 0 instructions: 620000004 cycles: 250711425 heartbeat IPC: 3.387 cumulative IPC: 2.393 (Simulation time: 05 hr 58 min 02 sec)
Heartbeat CPU 0 instructions: 630000002 cycles: 253522955 heartbeat IPC: 3.557 cumulative IPC: 2.406 (Simulation time: 06 hr 03 min 06 sec)
Heartbeat CPU 0 instructions: 640000004 cycles: 256570897 heartbeat IPC: 3.281 cumulative IPC: 2.417 (Simulation time: 06 hr 08 min 07 sec)
Heartbeat CPU 0 instructions: 650000001 cycles: 259281078 heartbeat IPC: 3.69 cumulative IPC: 2.431 (Simulation time: 06 hr 12 min 53 sec)
Simulation finished CPU 0 instructions: 600000001 cycles: 246781017 cumulative IPC: 2.431 (Simulation time: 06 hr 12 min 53 sec)
Simulation complete CPU 0 instructions: 600000001 cycles: 246781017 cumulative IPC: 2.431 (Simulation time: 06 hr 12 min 53 sec)

ChampSim completed all CPUs

=== Simulation ===
CPU 0 runs traces/400.perlbench-50B.champsimtrace.xz
Region of Interest Statistics

CPU 0 cumulative IPC: 2.431 instructions: 600000001 cycles: 246781017
CPU 0 Branch Prediction Accuracy: 99.01% MPKI: 2.04 Average ROB Occupancy at Mispredict: 94.16
Branch type MPKI
BRANCH_DIRECT_JUMP: 0.0176
BRANCH_INDIRECT: 0.38
BRANCH_CONDITIONAL: 1.19
BRANCH_DIRECT_CALL: 0.0067
BRANCH_INDIRECT_CALL: 0.431
BRANCH_RETURN: 0.0161

LLC TOTAL        ACCESS:     510643 HIT:     197000 MISS:     313643
LLC LOAD         ACCESS:     375972 HIT:      96301 MISS:     279671
LLC RFO          ACCESS:      32722 HIT:      12128 MISS:      20594
LLC PREFETCH     ACCESS:          0 HIT:          0 MISS:          0
LLC WRITE        ACCESS:      83633 HIT:      82234 MISS:       1399
LLC TRANSLATION  ACCESS:      18316 HIT:       6337 MISS:      11979
LLC PREFETCH REQUESTED:          0 ISSUED:          0 USEFUL:          0 USELESS:          0
LLC AVERAGE MISS LATENCY: 607.4 cycles
cpu0_DTLB TOTAL        ACCESS:  133169894 HIT:  131820186 MISS:    1349708
cpu0_DTLB LOAD         ACCESS:  133169894 HIT:  131820186 MISS:    1349708
cpu0_DTLB RFO          ACCESS:          0 HIT:          0 MISS:          0
cpu0_DTLB PREFETCH     ACCESS:          0 HIT:          0 MISS:          0
cpu0_DTLB WRITE        ACCESS:          0 HIT:          0 MISS:          0
cpu0_DTLB TRANSLATION  ACCESS:          0 HIT:          0 MISS:          0
cpu0_DTLB PREFETCH REQUESTED:          0 ISSUED:          0 USEFUL:          0 USELESS:          0
cpu0_DTLB AVERAGE MISS LATENCY: 11.85 cycles
cpu0_ITLB TOTAL        ACCESS:    8998905 HIT:    8788532 MISS:     210373
cpu0_ITLB LOAD         ACCESS:    8998905 HIT:    8788532 MISS:     210373
cpu0_ITLB RFO          ACCESS:          0 HIT:          0 MISS:          0
cpu0_ITLB PREFETCH     ACCESS:          0 HIT:          0 MISS:          0
cpu0_ITLB WRITE        ACCESS:          0 HIT:          0 MISS:          0
cpu0_ITLB TRANSLATION  ACCESS:          0 HIT:          0 MISS:          0
cpu0_ITLB PREFETCH REQUESTED:          0 ISSUED:          0 USEFUL:          0 USELESS:          0
cpu0_ITLB AVERAGE MISS LATENCY: 3.059 cycles
cpu0_L1D TOTAL        ACCESS:  178238816 HIT:  175291351 MISS:    2947465
cpu0_L1D LOAD         ACCESS:   92722051 HIT:   90301345 MISS:    2420706
cpu0_L1D RFO          ACCESS:          0 HIT:          0 MISS:          0
cpu0_L1D PREFETCH     ACCESS:          0 HIT:          0 MISS:          0
cpu0_L1D WRITE        ACCESS:   85488230 HIT:   84987996 MISS:     500234
cpu0_L1D TRANSLATION  ACCESS:      28535 HIT:       2010 MISS:      26525
cpu0_L1D PREFETCH REQUESTED:          0 ISSUED:          0 USEFUL:          0 USELESS:          0
cpu0_L1D AVERAGE MISS LATENCY: 65.06 cycles
cpu0_L1I TOTAL        ACCESS:   10517891 HIT:    8617053 MISS:    1900838
cpu0_L1I LOAD         ACCESS:   10517891 HIT:    8617053 MISS:    1900838
cpu0_L1I RFO          ACCESS:          0 HIT:          0 MISS:          0
cpu0_L1I PREFETCH     ACCESS:          0 HIT:          0 MISS:          0
cpu0_L1I WRITE        ACCESS:          0 HIT:          0 MISS:          0
cpu0_L1I TRANSLATION  ACCESS:          0 HIT:          0 MISS:          0
cpu0_L1I PREFETCH REQUESTED:          0 ISSUED:          0 USEFUL:          0 USELESS:          0
cpu0_L1I AVERAGE MISS LATENCY: 10.65 cycles
cpu0_L2C TOTAL        ACCESS:    3236159 HIT:    2808240 MISS:     427919
cpu0_L2C LOAD         ACCESS:    2709166 HIT:    2333194 MISS:     375972
cpu0_L2C RFO          ACCESS:     135552 HIT:     102830 MISS:      32722
cpu0_L2C PREFETCH     ACCESS:          0 HIT:          0 MISS:          0
cpu0_L2C WRITE        ACCESS:     364995 HIT:     364086 MISS:        909
cpu0_L2C TRANSLATION  ACCESS:      26446 HIT:       8130 MISS:      18316
cpu0_L2C PREFETCH REQUESTED:          0 ISSUED:          0 USEFUL:          0 USELESS:          0
cpu0_L2C AVERAGE MISS LATENCY: 465.9 cycles
cpu0_STLB TOTAL        ACCESS:    1009760 HIT:     983068 MISS:      26692
cpu0_STLB LOAD         ACCESS:    1009760 HIT:     983068 MISS:      26692
cpu0_STLB RFO          ACCESS:          0 HIT:          0 MISS:          0
cpu0_STLB PREFETCH     ACCESS:          0 HIT:          0 MISS:          0
cpu0_STLB WRITE        ACCESS:          0 HIT:          0 MISS:          0
cpu0_STLB TRANSLATION  ACCESS:          0 HIT:          0 MISS:          0
cpu0_STLB PREFETCH REQUESTED:          0 ISSUED:          0 USEFUL:          0 USELESS:          0
cpu0_STLB AVERAGE MISS LATENCY: 399.2 cycles

DRAM Statistics

Channel 0 RQ ROW_BUFFER_HIT:      61730
  ROW_BUFFER_MISS:     250441
 AVG DBUS CONGESTED CYCLE: 3.836
WQ ROW_BUFFER_HIT: Channel 0 
  ROW_BUFFER_MISS:       5833
  FULL:      43329
