WARNING: physical memory size is smaller than virtual memory size.

*** ChampSim Multicore Out-of-Order Simulator ***
Warmup Instructions: 50000000
Simulation Instructions: 600000000
Number of CPUs: 1
Page size: 4096

Off-chip DRAM Size: 4 GiB Channels: 1 Width: 64-bit Data Race: 3200 MT/s
Heartbeat CPU 0 instructions: 10000001 cycles: 2500319 heartbeat IPC: 3.999 cumulative IPC: 3.999 (Simulation time: 00 hr 02 min 58 sec)
Heartbeat CPU 0 instructions: 20000002 cycles: 5037096 heartbeat IPC: 3.942 cumulative IPC: 3.971 (Simulation time: 00 hr 06 min 33 sec)
Heartbeat CPU 0 instructions: 30000002 cycles: 7537096 heartbeat IPC: 4 cumulative IPC: 3.98 (Simulation time: 00 hr 10 min 17 sec)
Heartbeat CPU 0 instructions: 40000002 cycles: 10037096 heartbeat IPC: 4 cumulative IPC: 3.985 (Simulation time: 00 hr 13 min 50 sec)
Heartbeat CPU 0 instructions: 50000002 cycles: 12537096 heartbeat IPC: 4 cumulative IPC: 3.988 (Simulation time: 00 hr 17 min 20 sec)
Warmup finished CPU 0 instructions: 50000002 cycles: 12537097 cumulative IPC: 3.988 (Simulation time: 00 hr 17 min 20 sec)
Warmup complete CPU 0 instructions: 50000002 cycles: 12537097 cumulative IPC: 3.988 (Simulation time: 00 hr 17 min 20 sec)
Heartbeat CPU 0 instructions: 60000000 cycles: 17726962 heartbeat IPC: 1.927 cumulative IPC: 1.927 (Simulation time: 00 hr 22 min 45 sec)
Heartbeat CPU 0 instructions: 70000002 cycles: 22634496 heartbeat IPC: 2.038 cumulative IPC: 1.981 (Simulation time: 00 hr 28 min 09 sec)
Heartbeat CPU 0 instructions: 80000001 cycles: 28012667 heartbeat IPC: 1.859 cumulative IPC: 1.939 (Simulation time: 00 hr 33 min 45 sec)
Heartbeat CPU 0 instructions: 90000001 cycles: 32886772 heartbeat IPC: 2.052 cumulative IPC: 1.966 (Simulation time: 00 hr 39 min 04 sec)
Heartbeat CPU 0 instructions: 100000000 cycles: 38010071 heartbeat IPC: 1.952 cumulative IPC: 1.963 (Simulation time: 00 hr 44 min 31 sec)
Heartbeat CPU 0 instructions: 110000000 cycles: 42901652 heartbeat IPC: 2.044 cumulative IPC: 1.976 (Simulation time: 00 hr 49 min 52 sec)
Heartbeat CPU 0 instructions: 120000001 cycles: 48107709 heartbeat IPC: 1.921 cumulative IPC: 1.968 (Simulation time: 00 hr 55 min 28 sec)
Heartbeat CPU 0 instructions: 130000001 cycles: 53273919 heartbeat IPC: 1.936 cumulative IPC: 1.964 (Simulation time: 01 hr 01 min 05 sec)
Heartbeat CPU 0 instructions: 140000001 cycles: 58597377 heartbeat IPC: 1.878 cumulative IPC: 1.954 (Simulation time: 01 hr 06 min 41 sec)
Heartbeat CPU 0 instructions: 150000001 cycles: 63928911 heartbeat IPC: 1.876 cumulative IPC: 1.946 (Simulation time: 01 hr 12 min 18 sec)
Heartbeat CPU 0 instructions: 160000004 cycles: 69151718 heartbeat IPC: 1.915 cumulative IPC: 1.943 (Simulation time: 01 hr 17 min 57 sec)
Heartbeat CPU 0 instructions: 170000000 cycles: 77377224 heartbeat IPC: 1.216 cumulative IPC: 1.851 (Simulation time: 01 hr 25 min 55 sec)
Heartbeat CPU 0 instructions: 180000004 cycles: 86648635 heartbeat IPC: 1.079 cumulative IPC: 1.754 (Simulation time: 01 hr 34 min 42 sec)
Heartbeat CPU 0 instructions: 190000001 cycles: 97681117 heartbeat IPC: 0.9064 cumulative IPC: 1.644 (Simulation time: 01 hr 43 min 49 sec)
Heartbeat CPU 0 instructions: 200000003 cycles: 102465075 heartbeat IPC: 2.09 cumulative IPC: 1.668 (Simulation time: 01 hr 48 min 44 sec)
Heartbeat CPU 0 instructions: 210000001 cycles: 107397423 heartbeat IPC: 2.027 cumulative IPC: 1.687 (Simulation time: 01 hr 53 min 44 sec)
Heartbeat CPU 0 instructions: 220000000 cycles: 112229864 heartbeat IPC: 2.069 cumulative IPC: 1.705 (Simulation time: 01 hr 58 min 36 sec)
Heartbeat CPU 0 instructions: 230000002 cycles: 117567659 heartbeat IPC: 1.873 cumulative IPC: 1.714 (Simulation time: 02 hr 03 min 45 sec)
Heartbeat CPU 0 instructions: 240000000 cycles: 122424551 heartbeat IPC: 2.059 cumulative IPC: 1.729 (Simulation time: 02 hr 08 min 39 sec)
Heartbeat CPU 0 instructions: 250000000 cycles: 127582520 heartbeat IPC: 1.939 cumulative IPC: 1.738 (Simulation time: 02 hr 13 min 41 sec)
Heartbeat CPU 0 instructions: 260000000 cycles: 132611902 heartbeat IPC: 1.988 cumulative IPC: 1.749 (Simulation time: 02 hr 18 min 42 sec)
Heartbeat CPU 0 instructions: 270000002 cycles: 137504003 heartbeat IPC: 2.044 cumulative IPC: 1.76 (Simulation time: 02 hr 23 min 37 sec)
Heartbeat CPU 0 instructions: 280000002 cycles: 142416207 heartbeat IPC: 2.036 cumulative IPC: 1.771 (Simulation time: 02 hr 28 min 30 sec)
Heartbeat CPU 0 instructions: 290000001 cycles: 147797868 heartbeat IPC: 1.858 cumulative IPC: 1.774 (Simulation time: 02 hr 33 min 39 sec)
Heartbeat CPU 0 instructions: 300000003 cycles: 152868853 heartbeat IPC: 1.972 cumulative IPC: 1.781 (Simulation time: 02 hr 38 min 40 sec)
Heartbeat CPU 0 instructions: 310000001 cycles: 158181037 heartbeat IPC: 1.882 cumulative IPC: 1.785 (Simulation time: 02 hr 43 min 44 sec)
Heartbeat CPU 0 instructions: 320000003 cycles: 163395986 heartbeat IPC: 1.918 cumulative IPC: 1.79 (Simulation time: 02 hr 48 min 49 sec)
Heartbeat CPU 0 instructions: 330000003 cycles: 168707426 heartbeat IPC: 1.883 cumulative IPC: 1.793 (Simulation time: 02 hr 53 min 54 sec)
Heartbeat CPU 0 instructions: 340000000 cycles: 177001227 heartbeat IPC: 1.206 cumulative IPC: 1.763 (Simulation time: 03 hr 01 min 00 sec)
Heartbeat CPU 0 instructions: 350000000 cycles: 187045625 heartbeat IPC: 0.9956 cumulative IPC: 1.719 (Simulation time: 03 hr 09 min 12 sec)
Heartbeat CPU 0 instructions: 360000004 cycles: 198059043 heartbeat IPC: 0.908 cumulative IPC: 1.671 (Simulation time: 03 hr 17 min 56 sec)
Heartbeat CPU 0 instructions: 370000000 cycles: 202469072 heartbeat IPC: 2.268 cumulative IPC: 1.685 (Simulation time: 03 hr 22 min 42 sec)
Heartbeat CPU 0 instructions: 380000001 cycles: 207404616 heartbeat IPC: 2.026 cumulative IPC: 1.693 (Simulation time: 03 hr 27 min 42 sec)
Heartbeat CPU 0 instructions: 390000002 cycles: 212233752 heartbeat IPC: 2.071 cumulative IPC: 1.703 (Simulation time: 03 hr 32 min 33 sec)
Heartbeat CPU 0 instructions: 400000004 cycles: 217168782 heartbeat IPC: 2.026 cumulative IPC: 1.71 (Simulation time: 03 hr 37 min 29 sec)
Heartbeat CPU 0 instructions: 410000000 cycles: 221903018 heartbeat IPC: 2.112 cumulative IPC: 1.719 (Simulation time: 03 hr 42 min 16 sec)
Heartbeat CPU 0 instructions: 420000000 cycles: 227083292 heartbeat IPC: 1.93 cumulative IPC: 1.725 (Simulation time: 03 hr 47 min 20 sec)
Heartbeat CPU 0 instructions: 430000001 cycles: 231556509 heartbeat IPC: 2.236 cumulative IPC: 1.735 (Simulation time: 03 hr 52 min 03 sec)
Heartbeat CPU 0 instructions: 440000000 cycles: 236912647 heartbeat IPC: 1.867 cumulative IPC: 1.738 (Simulation time: 03 hr 57 min 12 sec)
Heartbeat CPU 0 instructions: 450000002 cycles: 241584177 heartbeat IPC: 2.141 cumulative IPC: 1.746 (Simulation time: 04 hr 01 min 59 sec)
Heartbeat CPU 0 instructions: 460000000 cycles: 246377169 heartbeat IPC: 2.086 cumulative IPC: 1.753 (Simulation time: 04 hr 06 min 50 sec)
Heartbeat CPU 0 instructions: 470000000 cycles: 251363058 heartbeat IPC: 2.006 cumulative IPC: 1.759 (Simulation time: 04 hr 11 min 50 sec)
Heartbeat CPU 0 instructions: 480000003 cycles: 256168343 heartbeat IPC: 2.081 cumulative IPC: 1.765 (Simulation time: 04 hr 16 min 42 sec)
Heartbeat CPU 0 instructions: 490000000 cycles: 260776738 heartbeat IPC: 2.17 cumulative IPC: 1.772 (Simulation time: 04 hr 21 min 28 sec)
Heartbeat CPU 0 instructions: 500000000 cycles: 265799443 heartbeat IPC: 1.991 cumulative IPC: 1.777 (Simulation time: 04 hr 26 min 29 sec)
Heartbeat CPU 0 instructions: 510000003 cycles: 271492339 heartbeat IPC: 1.757 cumulative IPC: 1.776 (Simulation time: 04 hr 32 min 00 sec)
Heartbeat CPU 0 instructions: 520000001 cycles: 276181544 heartbeat IPC: 2.133 cumulative IPC: 1.783 (Simulation time: 04 hr 36 min 50 sec)
Heartbeat CPU 0 instructions: 530000002 cycles: 281334009 heartbeat IPC: 1.941 cumulative IPC: 1.786 (Simulation time: 04 hr 41 min 52 sec)
Heartbeat CPU 0 instructions: 540000000 cycles: 286451966 heartbeat IPC: 1.954 cumulative IPC: 1.789 (Simulation time: 04 hr 46 min 54 sec)
Heartbeat CPU 0 instructions: 550000001 cycles: 291264385 heartbeat IPC: 2.078 cumulative IPC: 1.794 (Simulation time: 04 hr 51 min 49 sec)
Heartbeat CPU 0 instructions: 560000000 cycles: 296537505 heartbeat IPC: 1.896 cumulative IPC: 1.796 (Simulation time: 04 hr 56 min 55 sec)
Heartbeat CPU 0 instructions: 570000004 cycles: 303385247 heartbeat IPC: 1.46 cumulative IPC: 1.788 (Simulation time: 05 hr 03 min 09 sec)
Heartbeat CPU 0 instructions: 580000003 cycles: 311749069 heartbeat IPC: 1.196 cumulative IPC: 1.771 (Simulation time: 05 hr 10 min 31 sec)
Heartbeat CPU 0 instructions: 590000002 cycles: 325461526 heartbeat IPC: 0.7293 cumulative IPC: 1.726 (Simulation time: 05 hr 21 min 08 sec)
Heartbeat CPU 0 instructions: 600000000 cycles: 330089741 heartbeat IPC: 2.161 cumulative IPC: 1.732 (Simulation time: 05 hr 26 min 05 sec)
Heartbeat CPU 0 instructions: 610000002 cycles: 334580525 heartbeat IPC: 2.227 cumulative IPC: 1.739 (Simulation time: 05 hr 31 min 01 sec)
Heartbeat CPU 0 instructions: 620000000 cycles: 339386996 heartbeat IPC: 2.081 cumulative IPC: 1.744 (Simulation time: 05 hr 36 min 11 sec)
Heartbeat CPU 0 instructions: 630000002 cycles: 344481562 heartbeat IPC: 1.963 cumulative IPC: 1.747 (Simulation time: 05 hr 41 min 22 sec)
Heartbeat CPU 0 instructions: 640000001 cycles: 349334622 heartbeat IPC: 2.061 cumulative IPC: 1.752 (Simulation time: 05 hr 46 min 25 sec)
Heartbeat CPU 0 instructions: 650000000 cycles: 353888884 heartbeat IPC: 2.196 cumulative IPC: 1.758 (Simulation time: 05 hr 51 min 14 sec)
Simulation finished CPU 0 instructions: 600000001 cycles: 341351789 cumulative IPC: 1.758 (Simulation time: 05 hr 51 min 14 sec)
Simulation complete CPU 0 instructions: 600000001 cycles: 341351789 cumulative IPC: 1.758 (Simulation time: 05 hr 51 min 14 sec)

ChampSim completed all CPUs

=== Simulation ===
CPU 0 runs traces/400.perlbench-41B.champsimtrace.xz
Region of Interest Statistics

CPU 0 cumulative IPC: 1.758 instructions: 600000001 cycles: 341351789
CPU 0 Branch Prediction Accuracy: 93.95% MPKI: 12.5 Average ROB Occupancy at Mispredict: 29.43
Branch type MPKI
BRANCH_DIRECT_JUMP: 0.0123
BRANCH_INDIRECT: 0.323
BRANCH_CONDITIONAL: 12
BRANCH_DIRECT_CALL: 0.0043
BRANCH_INDIRECT_CALL: 0.2
BRANCH_RETURN: 0.00828

LLC TOTAL        ACCESS:     721358 HIT:     322067 MISS:     399291
LLC LOAD         ACCESS:     308270 HIT:     147869 MISS:     160401
LLC RFO          ACCESS:      25117 HIT:       9460 MISS:      15657
LLC PREFETCH     ACCESS:     308270 HIT:     135962 MISS:     172308
LLC WRITE        ACCESS:      64093 HIT:      27034 MISS:      37059
LLC TRANSLATION  ACCESS:      15608 HIT:       1742 MISS:      13866
LLC PREFETCH REQUESTED:     308270 ISSUED:     308270 USEFUL:      53403 USELESS:      78354
LLC AVERAGE MISS LATENCY: 528.1 cycles
cpu0_DTLB TOTAL        ACCESS:  153662001 HIT:  152985609 MISS:     676392
cpu0_DTLB LOAD         ACCESS:  153662001 HIT:  152985609 MISS:     676392
cpu0_DTLB RFO          ACCESS:          0 HIT:          0 MISS:          0
cpu0_DTLB PREFETCH     ACCESS:          0 HIT:          0 MISS:          0
cpu0_DTLB WRITE        ACCESS:          0 HIT:          0 MISS:          0
cpu0_DTLB TRANSLATION  ACCESS:          0 HIT:          0 MISS:          0
cpu0_DTLB PREFETCH REQUESTED:          0 ISSUED:          0 USEFUL:          0 USELESS:          0
cpu0_DTLB AVERAGE MISS LATENCY: 19.51 cycles
cpu0_ITLB TOTAL        ACCESS:    4835050 HIT:    4777009 MISS:      58041
cpu0_ITLB LOAD         ACCESS:    4835050 HIT:    4777009 MISS:      58041
cpu0_ITLB RFO          ACCESS:          0 HIT:          0 MISS:          0
cpu0_ITLB PREFETCH     ACCESS:          0 HIT:          0 MISS:          0
cpu0_ITLB WRITE        ACCESS:          0 HIT:          0 MISS:          0
cpu0_ITLB TRANSLATION  ACCESS:          0 HIT:          0 MISS:          0
cpu0_ITLB PREFETCH REQUESTED:          0 ISSUED:          0 USEFUL:          0 USELESS:          0
cpu0_ITLB AVERAGE MISS LATENCY: 7.336 cycles
cpu0_L1D TOTAL        ACCESS:  200299841 HIT:  198974261 MISS:    1325580
cpu0_L1D LOAD         ACCESS:  117055882 HIT:  116035403 MISS:    1020479
cpu0_L1D RFO          ACCESS:          0 HIT:          0 MISS:          0
cpu0_L1D PREFETCH     ACCESS:          0 HIT:          0 MISS:          0
cpu0_L1D WRITE        ACCESS:   83219492 HIT:   82937280 MISS:     282212
cpu0_L1D TRANSLATION  ACCESS:      24467 HIT:       1578 MISS:      22889
cpu0_L1D PREFETCH REQUESTED:          0 ISSUED:          0 USEFUL:          0 USELESS:          0
cpu0_L1D AVERAGE MISS LATENCY: 93.4 cycles
cpu0_L1I TOTAL        ACCESS:    5577478 HIT:    4815443 MISS:     762035
cpu0_L1I LOAD         ACCESS:    5577478 HIT:    4815443 MISS:     762035
cpu0_L1I RFO          ACCESS:          0 HIT:          0 MISS:          0
cpu0_L1I PREFETCH     ACCESS:          0 HIT:          0 MISS:          0
cpu0_L1I WRITE        ACCESS:          0 HIT:          0 MISS:          0
cpu0_L1I TRANSLATION  ACCESS:          0 HIT:          0 MISS:          0
cpu0_L1I PREFETCH REQUESTED:          0 ISSUED:          0 USEFUL:          0 USELESS:          0
cpu0_L1I AVERAGE MISS LATENCY: 12.18 cycles
cpu0_L2C TOTAL        ACCESS:    1382470 HIT:    1032639 MISS:     349831
cpu0_L2C LOAD         ACCESS:    1125690 HIT:     817420 MISS:     308270
cpu0_L2C RFO          ACCESS:      63872 HIT:      38755 MISS:      25117
cpu0_L2C PREFETCH     ACCESS:          0 HIT:          0 MISS:          0
cpu0_L2C WRITE        ACCESS:     170102 HIT:     169266 MISS:        836
cpu0_L2C TRANSLATION  ACCESS:      22806 HIT:       7198 MISS:      15608
cpu0_L2C PREFETCH REQUESTED:          0 ISSUED:          0 USEFUL:          0 USELESS:          0
cpu0_L2C AVERAGE MISS LATENCY: 356 cycles
cpu0_STLB TOTAL        ACCESS:     505021 HIT:     482232 MISS:      22789
cpu0_STLB LOAD         ACCESS:     505021 HIT:     482232 MISS:      22789
cpu0_STLB RFO          ACCESS:          0 HIT:          0 MISS:          0
cpu0_STLB PREFETCH     ACCESS:          0 HIT:          0 MISS:          0
cpu0_STLB WRITE        ACCESS:          0 HIT:          0 MISS:          0
cpu0_STLB TRANSLATION  ACCESS:          0 HIT:          0 MISS:          0
cpu0_STLB PREFETCH REQUESTED:          0 ISSUED:          0 USEFUL:          0 USELESS:          0
cpu0_STLB AVERAGE MISS LATENCY: 459.6 cycles

DRAM Statistics

Channel 0 RQ ROW_BUFFER_HIT:      47617
  ROW_BUFFER_MISS:     263602
 AVG DBUS CONGESTED CYCLE: 3.867
WQ ROW_BUFFER_HIT: Channel 0 
  ROW_BUFFER_MISS:       5907
  FULL:      32781
