WARNING: physical memory size is smaller than virtual memory size.

*** ChampSim Multicore Out-of-Order Simulator ***
Warmup Instructions: 50000000
Simulation Instructions: 600000000
Number of CPUs: 1
Page size: 4096

Off-chip DRAM Size: 4 GiB Channels: 1 Width: 64-bit Data Race: 3200 MT/s
Heartbeat CPU 0 instructions: 10000000 cycles: 2500062 heartbeat IPC: 4 cumulative IPC: 4 (Simulation time: 00 hr 03 min 38 sec)
Heartbeat CPU 0 instructions: 20000000 cycles: 5000062 heartbeat IPC: 4 cumulative IPC: 4 (Simulation time: 00 hr 07 min 11 sec)
Heartbeat CPU 0 instructions: 30000000 cycles: 7500062 heartbeat IPC: 4 cumulative IPC: 4 (Simulation time: 00 hr 10 min 43 sec)
Heartbeat CPU 0 instructions: 40000000 cycles: 10000062 heartbeat IPC: 4 cumulative IPC: 4 (Simulation time: 00 hr 14 min 15 sec)
Heartbeat CPU 0 instructions: 50000000 cycles: 12500062 heartbeat IPC: 4 cumulative IPC: 4 (Simulation time: 00 hr 17 min 48 sec)
Warmup finished CPU 0 instructions: 50000000 cycles: 12500063 cumulative IPC: 4 (Simulation time: 00 hr 17 min 48 sec)
Warmup complete CPU 0 instructions: 50000000 cycles: 12500063 cumulative IPC: 4 (Simulation time: 00 hr 17 min 48 sec)
Heartbeat CPU 0 instructions: 60000004 cycles: 15614691 heartbeat IPC: 3.211 cumulative IPC: 3.211 (Simulation time: 00 hr 22 min 13 sec)
Heartbeat CPU 0 instructions: 70000003 cycles: 18770579 heartbeat IPC: 3.169 cumulative IPC: 3.19 (Simulation time: 00 hr 26 min 35 sec)
Heartbeat CPU 0 instructions: 80000001 cycles: 22007457 heartbeat IPC: 3.089 cumulative IPC: 3.155 (Simulation time: 00 hr 30 min 56 sec)
Heartbeat CPU 0 instructions: 90000000 cycles: 24816481 heartbeat IPC: 3.56 cumulative IPC: 3.248 (Simulation time: 00 hr 35 min 10 sec)
Heartbeat CPU 0 instructions: 100000003 cycles: 27786523 heartbeat IPC: 3.367 cumulative IPC: 3.271 (Simulation time: 00 hr 39 min 29 sec)
Heartbeat CPU 0 instructions: 110000000 cycles: 30874757 heartbeat IPC: 3.238 cumulative IPC: 3.265 (Simulation time: 00 hr 43 min 51 sec)
Heartbeat CPU 0 instructions: 120000001 cycles: 33731060 heartbeat IPC: 3.501 cumulative IPC: 3.297 (Simulation time: 00 hr 48 min 06 sec)
Heartbeat CPU 0 instructions: 130000003 cycles: 36779488 heartbeat IPC: 3.28 cumulative IPC: 3.295 (Simulation time: 00 hr 52 min 25 sec)
Heartbeat CPU 0 instructions: 140000002 cycles: 39787926 heartbeat IPC: 3.324 cumulative IPC: 3.298 (Simulation time: 00 hr 56 min 45 sec)
Heartbeat CPU 0 instructions: 150000001 cycles: 42744219 heartbeat IPC: 3.383 cumulative IPC: 3.306 (Simulation time: 01 hr 01 min 03 sec)
Heartbeat CPU 0 instructions: 160000000 cycles: 45768047 heartbeat IPC: 3.307 cumulative IPC: 3.306 (Simulation time: 01 hr 05 min 24 sec)
Heartbeat CPU 0 instructions: 170000001 cycles: 48861785 heartbeat IPC: 3.232 cumulative IPC: 3.3 (Simulation time: 01 hr 09 min 46 sec)
Heartbeat CPU 0 instructions: 180000000 cycles: 51756852 heartbeat IPC: 3.454 cumulative IPC: 3.312 (Simulation time: 01 hr 14 min 07 sec)
Heartbeat CPU 0 instructions: 190000002 cycles: 54617773 heartbeat IPC: 3.495 cumulative IPC: 3.324 (Simulation time: 01 hr 18 min 36 sec)
Heartbeat CPU 0 instructions: 200000002 cycles: 57633985 heartbeat IPC: 3.315 cumulative IPC: 3.323 (Simulation time: 01 hr 22 min 57 sec)
Heartbeat CPU 0 instructions: 210000000 cycles: 60622904 heartbeat IPC: 3.346 cumulative IPC: 3.325 (Simulation time: 01 hr 27 min 15 sec)
Heartbeat CPU 0 instructions: 220000001 cycles: 63565437 heartbeat IPC: 3.398 cumulative IPC: 3.329 (Simulation time: 01 hr 31 min 32 sec)
Heartbeat CPU 0 instructions: 230000002 cycles: 66627263 heartbeat IPC: 3.266 cumulative IPC: 3.325 (Simulation time: 01 hr 35 min 56 sec)
Heartbeat CPU 0 instructions: 240000004 cycles: 69775368 heartbeat IPC: 3.177 cumulative IPC: 3.317 (Simulation time: 01 hr 40 min 21 sec)
Heartbeat CPU 0 instructions: 250000003 cycles: 72996137 heartbeat IPC: 3.105 cumulative IPC: 3.306 (Simulation time: 01 hr 44 min 44 sec)
Heartbeat CPU 0 instructions: 260000000 cycles: 75948290 heartbeat IPC: 3.387 cumulative IPC: 3.31 (Simulation time: 01 hr 49 min 07 sec)
Heartbeat CPU 0 instructions: 270000002 cycles: 82140992 heartbeat IPC: 1.615 cumulative IPC: 3.159 (Simulation time: 01 hr 55 min 35 sec)
Heartbeat CPU 0 instructions: 280000000 cycles: 93310597 heartbeat IPC: 0.8953 cumulative IPC: 2.846 (Simulation time: 02 hr 05 min 52 sec)
Heartbeat CPU 0 instructions: 290000000 cycles: 103092141 heartbeat IPC: 1.022 cumulative IPC: 2.649 (Simulation time: 02 hr 15 min 02 sec)
Heartbeat CPU 0 instructions: 300000003 cycles: 108858117 heartbeat IPC: 1.734 cumulative IPC: 2.594 (Simulation time: 02 hr 21 min 43 sec)
Heartbeat CPU 0 instructions: 310000004 cycles: 118074239 heartbeat IPC: 1.085 cumulative IPC: 2.463 (Simulation time: 02 hr 30 min 52 sec)
Heartbeat CPU 0 instructions: 320000004 cycles: 122222443 heartbeat IPC: 2.411 cumulative IPC: 2.461 (Simulation time: 02 hr 36 min 16 sec)
Heartbeat CPU 0 instructions: 330000000 cycles: 125538942 heartbeat IPC: 3.015 cumulative IPC: 2.477 (Simulation time: 02 hr 40 min 57 sec)
Heartbeat CPU 0 instructions: 340000001 cycles: 128938963 heartbeat IPC: 2.941 cumulative IPC: 2.491 (Simulation time: 02 hr 45 min 39 sec)
Heartbeat CPU 0 instructions: 350000000 cycles: 132494324 heartbeat IPC: 2.813 cumulative IPC: 2.5 (Simulation time: 02 hr 50 min 30 sec)
Heartbeat CPU 0 instructions: 360000003 cycles: 135788994 heartbeat IPC: 3.035 cumulative IPC: 2.514 (Simulation time: 02 hr 55 min 11 sec)
Heartbeat CPU 0 instructions: 370000001 cycles: 138957492 heartbeat IPC: 3.156 cumulative IPC: 2.53 (Simulation time: 02 hr 59 min 48 sec)
Heartbeat CPU 0 instructions: 380000004 cycles: 142145494 heartbeat IPC: 3.137 cumulative IPC: 2.545 (Simulation time: 03 hr 04 min 25 sec)
Heartbeat CPU 0 instructions: 390000002 cycles: 145550649 heartbeat IPC: 2.937 cumulative IPC: 2.555 (Simulation time: 03 hr 09 min 08 sec)
Heartbeat CPU 0 instructions: 400000000 cycles: 149054773 heartbeat IPC: 2.854 cumulative IPC: 2.563 (Simulation time: 03 hr 13 min 58 sec)
Heartbeat CPU 0 instructions: 410000000 cycles: 155860355 heartbeat IPC: 1.469 cumulative IPC: 2.511 (Simulation time: 03 hr 21 min 09 sec)
Heartbeat CPU 0 instructions: 420000003 cycles: 165782157 heartbeat IPC: 1.008 cumulative IPC: 2.414 (Simulation time: 03 hr 30 min 42 sec)
Heartbeat CPU 0 instructions: 430000004 cycles: 171560037 heartbeat IPC: 1.731 cumulative IPC: 2.389 (Simulation time: 03 hr 37 min 35 sec)
Heartbeat CPU 0 instructions: 440000004 cycles: 177881810 heartbeat IPC: 1.582 cumulative IPC: 2.358 (Simulation time: 03 hr 44 min 38 sec)
Heartbeat CPU 0 instructions: 450000000 cycles: 183634244 heartbeat IPC: 1.738 cumulative IPC: 2.337 (Simulation time: 03 hr 51 min 11 sec)
Heartbeat CPU 0 instructions: 460000002 cycles: 194470089 heartbeat IPC: 0.9229 cumulative IPC: 2.253 (Simulation time: 04 hr 01 min 12 sec)
Heartbeat CPU 0 instructions: 470000003 cycles: 202774959 heartbeat IPC: 1.204 cumulative IPC: 2.207 (Simulation time: 04 hr 09 min 33 sec)
Heartbeat CPU 0 instructions: 480000000 cycles: 206391960 heartbeat IPC: 2.765 cumulative IPC: 2.218 (Simulation time: 04 hr 14 min 37 sec)
Heartbeat CPU 0 instructions: 490000001 cycles: 210246563 heartbeat IPC: 2.594 cumulative IPC: 2.225 (Simulation time: 04 hr 19 min 43 sec)
Heartbeat CPU 0 instructions: 500000002 cycles: 213894605 heartbeat IPC: 2.741 cumulative IPC: 2.234 (Simulation time: 04 hr 24 min 38 sec)
Heartbeat CPU 0 instructions: 510000000 cycles: 217414571 heartbeat IPC: 2.841 cumulative IPC: 2.245 (Simulation time: 04 hr 29 min 31 sec)
Heartbeat CPU 0 instructions: 520000000 cycles: 221077856 heartbeat IPC: 2.73 cumulative IPC: 2.253 (Simulation time: 04 hr 34 min 32 sec)
Heartbeat CPU 0 instructions: 530000001 cycles: 231307690 heartbeat IPC: 0.9775 cumulative IPC: 2.194 (Simulation time: 04 hr 43 min 58 sec)
Heartbeat CPU 0 instructions: 540000000 cycles: 241246019 heartbeat IPC: 1.006 cumulative IPC: 2.142 (Simulation time: 04 hr 53 min 20 sec)
Heartbeat CPU 0 instructions: 550000004 cycles: 252794361 heartbeat IPC: 0.8659 cumulative IPC: 2.081 (Simulation time: 05 hr 03 min 51 sec)
Heartbeat CPU 0 instructions: 560000004 cycles: 256702916 heartbeat IPC: 2.558 cumulative IPC: 2.088 (Simulation time: 05 hr 08 min 53 sec)
Heartbeat CPU 0 instructions: 570000002 cycles: 259548751 heartbeat IPC: 3.514 cumulative IPC: 2.105 (Simulation time: 05 hr 13 min 16 sec)
Heartbeat CPU 0 instructions: 580000000 cycles: 262550579 heartbeat IPC: 3.331 cumulative IPC: 2.12 (Simulation time: 05 hr 17 min 37 sec)
Heartbeat CPU 0 instructions: 590000001 cycles: 265536436 heartbeat IPC: 3.349 cumulative IPC: 2.134 (Simulation time: 05 hr 22 min 00 sec)
Heartbeat CPU 0 instructions: 600000003 cycles: 268281265 heartbeat IPC: 3.643 cumulative IPC: 2.15 (Simulation time: 05 hr 26 min 24 sec)
Heartbeat CPU 0 instructions: 610000001 cycles: 271221300 heartbeat IPC: 3.401 cumulative IPC: 2.164 (Simulation time: 05 hr 30 min 56 sec)
Heartbeat CPU 0 instructions: 620000002 cycles: 274250531 heartbeat IPC: 3.301 cumulative IPC: 2.178 (Simulation time: 05 hr 35 min 30 sec)
Heartbeat CPU 0 instructions: 630000002 cycles: 277136143 heartbeat IPC: 3.465 cumulative IPC: 2.192 (Simulation time: 05 hr 39 min 51 sec)
Heartbeat CPU 0 instructions: 640000004 cycles: 280223372 heartbeat IPC: 3.239 cumulative IPC: 2.204 (Simulation time: 05 hr 44 min 20 sec)
Heartbeat CPU 0 instructions: 650000001 cycles: 282981932 heartbeat IPC: 3.625 cumulative IPC: 2.218 (Simulation time: 05 hr 48 min 36 sec)
Simulation finished CPU 0 instructions: 600000001 cycles: 270481870 cumulative IPC: 2.218 (Simulation time: 05 hr 48 min 36 sec)
Simulation complete CPU 0 instructions: 600000001 cycles: 270481870 cumulative IPC: 2.218 (Simulation time: 05 hr 48 min 36 sec)

ChampSim completed all CPUs

=== Simulation ===
CPU 0 runs traces/400.perlbench-50B.champsimtrace.xz
Region of Interest Statistics

CPU 0 cumulative IPC: 2.218 instructions: 600000001 cycles: 270481870
CPU 0 Branch Prediction Accuracy: 98.73% MPKI: 2.62 Average ROB Occupancy at Mispredict: 86.39
Branch type MPKI
BRANCH_DIRECT_JUMP: 0.0176
BRANCH_INDIRECT: 0.38
BRANCH_CONDITIONAL: 1.77
BRANCH_DIRECT_CALL: 0.0067
BRANCH_INDIRECT_CALL: 0.431
BRANCH_RETURN: 0.0161

LLC TOTAL        ACCESS:     836376 HIT:     244366 MISS:     592010
LLC LOAD         ACCESS:     376875 HIT:     129960 MISS:     246915
LLC RFO          ACCESS:      32486 HIT:       8040 MISS:      24446
LLC PREFETCH     ACCESS:     325122 HIT:      80574 MISS:     244548
LLC WRITE        ACCESS:      83651 HIT:      25240 MISS:      58411
LLC TRANSLATION  ACCESS:      18242 HIT:        552 MISS:      17690
LLC PREFETCH REQUESTED:     325298 ISSUED:     325122 USEFUL:      50471 USELESS:     169169
LLC AVERAGE MISS LATENCY: 707.4 cycles
cpu0_DTLB TOTAL        ACCESS:  134571048 HIT:  133222347 MISS:    1348701
cpu0_DTLB LOAD         ACCESS:  134571048 HIT:  133222347 MISS:    1348701
cpu0_DTLB RFO          ACCESS:          0 HIT:          0 MISS:          0
cpu0_DTLB PREFETCH     ACCESS:          0 HIT:          0 MISS:          0
cpu0_DTLB WRITE        ACCESS:          0 HIT:          0 MISS:          0
cpu0_DTLB TRANSLATION  ACCESS:          0 HIT:          0 MISS:          0
cpu0_DTLB PREFETCH REQUESTED:          0 ISSUED:          0 USEFUL:          0 USELESS:          0
cpu0_DTLB AVERAGE MISS LATENCY: 16.26 cycles
cpu0_ITLB TOTAL        ACCESS:    8979343 HIT:    8771333 MISS:     208010
cpu0_ITLB LOAD         ACCESS:    8979343 HIT:    8771333 MISS:     208010
cpu0_ITLB RFO          ACCESS:          0 HIT:          0 MISS:          0
cpu0_ITLB PREFETCH     ACCESS:          0 HIT:          0 MISS:          0
cpu0_ITLB WRITE        ACCESS:          0 HIT:          0 MISS:          0
cpu0_ITLB TRANSLATION  ACCESS:          0 HIT:          0 MISS:          0
cpu0_ITLB PREFETCH REQUESTED:          0 ISSUED:          0 USEFUL:          0 USELESS:          0
cpu0_ITLB AVERAGE MISS LATENCY: 3.85 cycles
cpu0_L1D TOTAL        ACCESS:  180650317 HIT:  177729392 MISS:    2920925
cpu0_L1D LOAD         ACCESS:   95093199 HIT:   92700239 MISS:    2392960
cpu0_L1D RFO          ACCESS:          0 HIT:          0 MISS:          0
cpu0_L1D PREFETCH     ACCESS:          0 HIT:          0 MISS:          0
cpu0_L1D WRITE        ACCESS:   85528587 HIT:   85027146 MISS:     501441
cpu0_L1D TRANSLATION  ACCESS:      28531 HIT:       2007 MISS:      26524
cpu0_L1D PREFETCH REQUESTED:          0 ISSUED:          0 USEFUL:          0 USELESS:          0
cpu0_L1D AVERAGE MISS LATENCY: 71.43 cycles
cpu0_L1I TOTAL        ACCESS:   10493705 HIT:    8602837 MISS:    1890868
cpu0_L1I LOAD         ACCESS:   10493705 HIT:    8602837 MISS:    1890868
cpu0_L1I RFO          ACCESS:          0 HIT:          0 MISS:          0
cpu0_L1I PREFETCH     ACCESS:          0 HIT:          0 MISS:          0
cpu0_L1I WRITE        ACCESS:          0 HIT:          0 MISS:          0
cpu0_L1I TRANSLATION  ACCESS:          0 HIT:          0 MISS:          0
cpu0_L1I PREFETCH REQUESTED:          0 ISSUED:          0 USEFUL:          0 USELESS:          0
cpu0_L1I AVERAGE MISS LATENCY: 15.29 cycles
cpu0_L2C TOTAL        ACCESS:    3236149 HIT:    2807590 MISS:     428559
cpu0_L2C LOAD         ACCESS:    2709780 HIT:    2332905 MISS:     376875
cpu0_L2C RFO          ACCESS:     135283 HIT:     102797 MISS:      32486
cpu0_L2C PREFETCH     ACCESS:          0 HIT:          0 MISS:          0
cpu0_L2C WRITE        ACCESS:     364648 HIT:     363692 MISS:        956
cpu0_L2C TRANSLATION  ACCESS:      26438 HIT:       8196 MISS:      18242
cpu0_L2C PREFETCH REQUESTED:          0 ISSUED:          0 USEFUL:          0 USELESS:          0
cpu0_L2C AVERAGE MISS LATENCY: 515.4 cycles
cpu0_STLB TOTAL        ACCESS:    1009885 HIT:     983195 MISS:      26690
cpu0_STLB LOAD         ACCESS:    1009885 HIT:     983195 MISS:      26690
cpu0_STLB RFO          ACCESS:          0 HIT:          0 MISS:          0
cpu0_STLB PREFETCH     ACCESS:          0 HIT:          0 MISS:          0
cpu0_STLB WRITE        ACCESS:          0 HIT:          0 MISS:          0
cpu0_STLB TRANSLATION  ACCESS:          0 HIT:          0 MISS:          0
cpu0_STLB PREFETCH REQUESTED:          0 ISSUED:          0 USEFUL:          0 USELESS:          0
cpu0_STLB AVERAGE MISS LATENCY: 636.6 cycles

DRAM Statistics

Channel 0 RQ ROW_BUFFER_HIT:     164184
  ROW_BUFFER_MISS:     352995
 AVG DBUS CONGESTED CYCLE: 3.908
WQ ROW_BUFFER_HIT: Channel 0 
  ROW_BUFFER_MISS:       6198
  FULL:      52827
