WARNING: physical memory size is smaller than virtual memory size.

*** ChampSim Multicore Out-of-Order Simulator ***
Warmup Instructions: 50000000
Simulation Instructions: 600000000
Number of CPUs: 1
Page size: 4096

Off-chip DRAM Size: 4 GiB Channels: 1 Width: 64-bit Data Race: 3200 MT/s
Heartbeat CPU 0 instructions: 10000000 cycles: 2500061 heartbeat IPC: 4 cumulative IPC: 4 (Simulation time: 00 hr 03 min 28 sec)
Heartbeat CPU 0 instructions: 20000000 cycles: 5000061 heartbeat IPC: 4 cumulative IPC: 4 (Simulation time: 00 hr 06 min 57 sec)
Heartbeat CPU 0 instructions: 30000000 cycles: 7500061 heartbeat IPC: 4 cumulative IPC: 4 (Simulation time: 00 hr 10 min 35 sec)
Heartbeat CPU 0 instructions: 40000000 cycles: 10000061 heartbeat IPC: 4 cumulative IPC: 4 (Simulation time: 00 hr 14 min 12 sec)
Heartbeat CPU 0 instructions: 50000000 cycles: 12500061 heartbeat IPC: 4 cumulative IPC: 4 (Simulation time: 00 hr 17 min 41 sec)
Warmup finished CPU 0 instructions: 50000000 cycles: 12500062 cumulative IPC: 4 (Simulation time: 00 hr 17 min 41 sec)
Warmup complete CPU 0 instructions: 50000000 cycles: 12500062 cumulative IPC: 4 (Simulation time: 00 hr 17 min 41 sec)
Heartbeat CPU 0 instructions: 60000002 cycles: 16234062 heartbeat IPC: 2.678 cumulative IPC: 2.678 (Simulation time: 00 hr 22 min 29 sec)
Heartbeat CPU 0 instructions: 70000003 cycles: 20382913 heartbeat IPC: 2.41 cumulative IPC: 2.537 (Simulation time: 00 hr 27 min 30 sec)
Heartbeat CPU 0 instructions: 80000003 cycles: 24571024 heartbeat IPC: 2.388 cumulative IPC: 2.485 (Simulation time: 00 hr 32 min 19 sec)
Heartbeat CPU 0 instructions: 90000000 cycles: 27797829 heartbeat IPC: 3.099 cumulative IPC: 2.615 (Simulation time: 00 hr 36 min 41 sec)
Heartbeat CPU 0 instructions: 100000003 cycles: 31795935 heartbeat IPC: 2.501 cumulative IPC: 2.591 (Simulation time: 00 hr 41 min 39 sec)
Heartbeat CPU 0 instructions: 110000002 cycles: 35752589 heartbeat IPC: 2.527 cumulative IPC: 2.58 (Simulation time: 00 hr 46 min 22 sec)
Heartbeat CPU 0 instructions: 120000001 cycles: 39303646 heartbeat IPC: 2.816 cumulative IPC: 2.612 (Simulation time: 00 hr 50 min 53 sec)
Heartbeat CPU 0 instructions: 130000003 cycles: 42944833 heartbeat IPC: 2.746 cumulative IPC: 2.628 (Simulation time: 00 hr 55 min 26 sec)
Heartbeat CPU 0 instructions: 140000002 cycles: 46887766 heartbeat IPC: 2.536 cumulative IPC: 2.617 (Simulation time: 01 hr 00 min 12 sec)
Heartbeat CPU 0 instructions: 150000001 cycles: 50768775 heartbeat IPC: 2.577 cumulative IPC: 2.613 (Simulation time: 01 hr 04 min 54 sec)
Heartbeat CPU 0 instructions: 160000000 cycles: 54402299 heartbeat IPC: 2.752 cumulative IPC: 2.625 (Simulation time: 01 hr 09 min 31 sec)
Heartbeat CPU 0 instructions: 170000001 cycles: 58347738 heartbeat IPC: 2.535 cumulative IPC: 2.617 (Simulation time: 01 hr 14 min 16 sec)
Heartbeat CPU 0 instructions: 180000001 cycles: 61760059 heartbeat IPC: 2.931 cumulative IPC: 2.639 (Simulation time: 01 hr 18 min 46 sec)
Heartbeat CPU 0 instructions: 190000002 cycles: 65219996 heartbeat IPC: 2.89 cumulative IPC: 2.656 (Simulation time: 01 hr 23 min 18 sec)
Heartbeat CPU 0 instructions: 200000002 cycles: 68934919 heartbeat IPC: 2.692 cumulative IPC: 2.658 (Simulation time: 01 hr 27 min 59 sec)
Heartbeat CPU 0 instructions: 210000000 cycles: 72470519 heartbeat IPC: 2.828 cumulative IPC: 2.668 (Simulation time: 01 hr 32 min 32 sec)
Heartbeat CPU 0 instructions: 220000001 cycles: 76163414 heartbeat IPC: 2.708 cumulative IPC: 2.67 (Simulation time: 01 hr 37 min 10 sec)
Heartbeat CPU 0 instructions: 230000002 cycles: 79848935 heartbeat IPC: 2.713 cumulative IPC: 2.673 (Simulation time: 01 hr 41 min 50 sec)
Heartbeat CPU 0 instructions: 240000004 cycles: 83829247 heartbeat IPC: 2.512 cumulative IPC: 2.664 (Simulation time: 01 hr 46 min 38 sec)
Heartbeat CPU 0 instructions: 250000003 cycles: 88131542 heartbeat IPC: 2.324 cumulative IPC: 2.644 (Simulation time: 01 hr 51 min 31 sec)
Heartbeat CPU 0 instructions: 260000001 cycles: 91778009 heartbeat IPC: 2.742 cumulative IPC: 2.649 (Simulation time: 01 hr 56 min 06 sec)
Heartbeat CPU 0 instructions: 270000003 cycles: 98855953 heartbeat IPC: 1.413 cumulative IPC: 2.548 (Simulation time: 02 hr 02 min 55 sec)
Heartbeat CPU 0 instructions: 280000000 cycles: 110024756 heartbeat IPC: 0.8954 cumulative IPC: 2.358 (Simulation time: 02 hr 12 min 29 sec)
Heartbeat CPU 0 instructions: 290000000 cycles: 120275776 heartbeat IPC: 0.9755 cumulative IPC: 2.227 (Simulation time: 02 hr 21 min 29 sec)
Heartbeat CPU 0 instructions: 300000000 cycles: 128235126 heartbeat IPC: 1.256 cumulative IPC: 2.16 (Simulation time: 02 hr 29 min 13 sec)
Heartbeat CPU 0 instructions: 310000004 cycles: 140056729 heartbeat IPC: 0.8459 cumulative IPC: 2.038 (Simulation time: 02 hr 39 min 16 sec)
Heartbeat CPU 0 instructions: 320000004 cycles: 145466916 heartbeat IPC: 1.848 cumulative IPC: 2.031 (Simulation time: 02 hr 45 min 14 sec)
Heartbeat CPU 0 instructions: 330000000 cycles: 149474147 heartbeat IPC: 2.495 cumulative IPC: 2.044 (Simulation time: 02 hr 50 min 09 sec)
Heartbeat CPU 0 instructions: 340000001 cycles: 153753107 heartbeat IPC: 2.337 cumulative IPC: 2.053 (Simulation time: 02 hr 55 min 09 sec)
Heartbeat CPU 0 instructions: 350000004 cycles: 158138105 heartbeat IPC: 2.281 cumulative IPC: 2.06 (Simulation time: 03 hr 00 min 17 sec)
Heartbeat CPU 0 instructions: 360000003 cycles: 162267691 heartbeat IPC: 2.422 cumulative IPC: 2.07 (Simulation time: 03 hr 05 min 17 sec)
Heartbeat CPU 0 instructions: 370000001 cycles: 166286800 heartbeat IPC: 2.488 cumulative IPC: 2.081 (Simulation time: 03 hr 10 min 11 sec)
Heartbeat CPU 0 instructions: 380000004 cycles: 170186953 heartbeat IPC: 2.564 cumulative IPC: 2.093 (Simulation time: 03 hr 15 min 04 sec)
Heartbeat CPU 0 instructions: 390000002 cycles: 174314204 heartbeat IPC: 2.423 cumulative IPC: 2.101 (Simulation time: 03 hr 20 min 06 sec)
Heartbeat CPU 0 instructions: 400000000 cycles: 178717673 heartbeat IPC: 2.271 cumulative IPC: 2.106 (Simulation time: 03 hr 25 min 17 sec)
Heartbeat CPU 0 instructions: 410000000 cycles: 186618617 heartbeat IPC: 1.266 cumulative IPC: 2.068 (Simulation time: 03 hr 32 min 41 sec)
Heartbeat CPU 0 instructions: 420000001 cycles: 198142985 heartbeat IPC: 0.8677 cumulative IPC: 1.993 (Simulation time: 03 hr 42 min 32 sec)
Heartbeat CPU 0 instructions: 430000002 cycles: 206406739 heartbeat IPC: 1.21 cumulative IPC: 1.96 (Simulation time: 03 hr 50 min 25 sec)
Heartbeat CPU 0 instructions: 440000002 cycles: 213651577 heartbeat IPC: 1.38 cumulative IPC: 1.939 (Simulation time: 03 hr 57 min 36 sec)
Heartbeat CPU 0 instructions: 450000000 cycles: 220976911 heartbeat IPC: 1.365 cumulative IPC: 1.919 (Simulation time: 04 hr 04 min 45 sec)
Heartbeat CPU 0 instructions: 460000002 cycles: 232577626 heartbeat IPC: 0.862 cumulative IPC: 1.863 (Simulation time: 04 hr 14 min 36 sec)
Heartbeat CPU 0 instructions: 470000003 cycles: 242885806 heartbeat IPC: 0.9701 cumulative IPC: 1.823 (Simulation time: 04 hr 23 min 38 sec)
Heartbeat CPU 0 instructions: 480000003 cycles: 247238021 heartbeat IPC: 2.298 cumulative IPC: 1.832 (Simulation time: 04 hr 28 min 47 sec)
Heartbeat CPU 0 instructions: 490000001 cycles: 251892135 heartbeat IPC: 2.149 cumulative IPC: 1.838 (Simulation time: 04 hr 34 min 06 sec)
Heartbeat CPU 0 instructions: 500000002 cycles: 256325156 heartbeat IPC: 2.256 cumulative IPC: 1.846 (Simulation time: 04 hr 39 min 15 sec)
Heartbeat CPU 0 instructions: 510000000 cycles: 260749636 heartbeat IPC: 2.26 cumulative IPC: 1.853 (Simulation time: 04 hr 44 min 27 sec)
Heartbeat CPU 0 instructions: 520000000 cycles: 265275634 heartbeat IPC: 2.209 cumulative IPC: 1.859 (Simulation time: 04 hr 49 min 41 sec)
Heartbeat CPU 0 instructions: 530000001 cycles: 277307782 heartbeat IPC: 0.8311 cumulative IPC: 1.813 (Simulation time: 04 hr 59 min 41 sec)
Heartbeat CPU 0 instructions: 540000000 cycles: 289217997 heartbeat IPC: 0.8396 cumulative IPC: 1.771 (Simulation time: 05 hr 09 min 50 sec)
Heartbeat CPU 0 instructions: 550000002 cycles: 302172714 heartbeat IPC: 0.7719 cumulative IPC: 1.726 (Simulation time: 05 hr 20 min 35 sec)
Heartbeat CPU 0 instructions: 560000004 cycles: 306628884 heartbeat IPC: 2.244 cumulative IPC: 1.734 (Simulation time: 05 hr 25 min 55 sec)
Heartbeat CPU 0 instructions: 570000001 cycles: 309767015 heartbeat IPC: 3.187 cumulative IPC: 1.749 (Simulation time: 05 hr 30 min 17 sec)
Heartbeat CPU 0 instructions: 580000003 cycles: 313255138 heartbeat IPC: 2.867 cumulative IPC: 1.762 (Simulation time: 05 hr 34 min 46 sec)
Heartbeat CPU 0 instructions: 590000001 cycles: 316827881 heartbeat IPC: 2.799 cumulative IPC: 1.774 (Simulation time: 05 hr 39 min 21 sec)
Heartbeat CPU 0 instructions: 600000003 cycles: 319813092 heartbeat IPC: 3.35 cumulative IPC: 1.79 (Simulation time: 05 hr 43 min 38 sec)
Heartbeat CPU 0 instructions: 610000001 cycles: 323314798 heartbeat IPC: 2.856 cumulative IPC: 1.802 (Simulation time: 05 hr 48 min 09 sec)
Heartbeat CPU 0 instructions: 620000000 cycles: 326852851 heartbeat IPC: 2.826 cumulative IPC: 1.813 (Simulation time: 05 hr 52 min 44 sec)
Heartbeat CPU 0 instructions: 630000002 cycles: 330045359 heartbeat IPC: 3.132 cumulative IPC: 1.827 (Simulation time: 05 hr 57 min 20 sec)
Heartbeat CPU 0 instructions: 640000004 cycles: 333796339 heartbeat IPC: 2.666 cumulative IPC: 1.836 (Simulation time: 06 hr 02 min 00 sec)
Heartbeat CPU 0 instructions: 650000001 cycles: 337196347 heartbeat IPC: 2.941 cumulative IPC: 1.848 (Simulation time: 06 hr 06 min 30 sec)
Simulation finished CPU 0 instructions: 600000001 cycles: 324696286 cumulative IPC: 1.848 (Simulation time: 06 hr 06 min 30 sec)
Simulation complete CPU 0 instructions: 600000001 cycles: 324696286 cumulative IPC: 1.848 (Simulation time: 06 hr 06 min 30 sec)

ChampSim completed all CPUs

=== Simulation ===
CPU 0 runs traces/400.perlbench-50B.champsimtrace.xz
Region of Interest Statistics

CPU 0 cumulative IPC: 1.848 instructions: 600000001 cycles: 324696286
CPU 0 Branch Prediction Accuracy: 96.09% MPKI: 8.064 Average ROB Occupancy at Mispredict: 40.07
Branch type MPKI
BRANCH_DIRECT_JUMP: 0.0176
BRANCH_INDIRECT: 0.38
BRANCH_CONDITIONAL: 7.21
BRANCH_DIRECT_CALL: 0.0067
BRANCH_INDIRECT_CALL: 0.431
BRANCH_RETURN: 0.0161

LLC TOTAL        ACCESS:     892272 HIT:     402603 MISS:     489669
LLC LOAD         ACCESS:     378640 HIT:     159260 MISS:     219380
LLC RFO          ACCESS:      32752 HIT:      12313 MISS:      20439
LLC PREFETCH     ACCESS:     378640 HIT:     143905 MISS:     234735
LLC WRITE        ACCESS:      84085 HIT:      81813 MISS:       2272
LLC TRANSLATION  ACCESS:      18155 HIT:       5312 MISS:      12843
LLC PREFETCH REQUESTED:     378640 ISSUED:     378640 USEFUL:      93803 USELESS:      84659
LLC AVERAGE MISS LATENCY: 530.1 cycles
cpu0_DTLB TOTAL        ACCESS:  146268865 HIT:  144976055 MISS:    1292810
cpu0_DTLB LOAD         ACCESS:  146268865 HIT:  144976055 MISS:    1292810
cpu0_DTLB RFO          ACCESS:          0 HIT:          0 MISS:          0
cpu0_DTLB PREFETCH     ACCESS:          0 HIT:          0 MISS:          0
cpu0_DTLB WRITE        ACCESS:          0 HIT:          0 MISS:          0
cpu0_DTLB TRANSLATION  ACCESS:          0 HIT:          0 MISS:          0
cpu0_DTLB PREFETCH REQUESTED:          0 ISSUED:          0 USEFUL:          0 USELESS:          0
cpu0_DTLB AVERAGE MISS LATENCY: 12.45 cycles
cpu0_ITLB TOTAL        ACCESS:    8992635 HIT:    8820042 MISS:     172593
cpu0_ITLB LOAD         ACCESS:    8992635 HIT:    8820042 MISS:     172593
cpu0_ITLB RFO          ACCESS:          0 HIT:          0 MISS:          0
cpu0_ITLB PREFETCH     ACCESS:          0 HIT:          0 MISS:          0
cpu0_ITLB WRITE        ACCESS:          0 HIT:          0 MISS:          0
cpu0_ITLB TRANSLATION  ACCESS:          0 HIT:          0 MISS:          0
cpu0_ITLB PREFETCH REQUESTED:          0 ISSUED:          0 USEFUL:          0 USELESS:          0
cpu0_ITLB AVERAGE MISS LATENCY: 4.307 cycles
cpu0_L1D TOTAL        ACCESS:  193033839 HIT:  190233383 MISS:    2800456
cpu0_L1D LOAD         ACCESS:  107216061 HIT:  104914532 MISS:    2301529
cpu0_L1D RFO          ACCESS:          0 HIT:          0 MISS:          0
cpu0_L1D PREFETCH     ACCESS:          0 HIT:          0 MISS:          0
cpu0_L1D WRITE        ACCESS:   85789246 HIT:   85316830 MISS:     472416
cpu0_L1D TRANSLATION  ACCESS:      28532 HIT:       2021 MISS:      26511
cpu0_L1D PREFETCH REQUESTED:          0 ISSUED:          0 USEFUL:          0 USELESS:          0
cpu0_L1D AVERAGE MISS LATENCY: 55.8 cycles
cpu0_L1I TOTAL        ACCESS:   10427075 HIT:    8711791 MISS:    1715284
cpu0_L1I LOAD         ACCESS:   10427075 HIT:    8711791 MISS:    1715284
cpu0_L1I RFO          ACCESS:          0 HIT:          0 MISS:          0
cpu0_L1I PREFETCH     ACCESS:          0 HIT:          0 MISS:          0
cpu0_L1I WRITE        ACCESS:          0 HIT:          0 MISS:          0
cpu0_L1I TRANSLATION  ACCESS:          0 HIT:          0 MISS:          0
cpu0_L1I PREFETCH REQUESTED:          0 ISSUED:          0 USEFUL:          0 USELESS:          0
cpu0_L1I AVERAGE MISS LATENCY: 11.3 cycles
cpu0_L2C TOTAL        ACCESS:    3232159 HIT:    2801696 MISS:     430463
cpu0_L2C LOAD         ACCESS:    2710482 HIT:    2331841 MISS:     378641
cpu0_L2C RFO          ACCESS:     132917 HIT:     100165 MISS:      32752
cpu0_L2C PREFETCH     ACCESS:          0 HIT:          0 MISS:          0
cpu0_L2C WRITE        ACCESS:     362303 HIT:     361388 MISS:        915
cpu0_L2C TRANSLATION  ACCESS:      26457 HIT:       8302 MISS:      18155
cpu0_L2C PREFETCH REQUESTED:          0 ISSUED:          0 USEFUL:          0 USELESS:          0
cpu0_L2C AVERAGE MISS LATENCY: 357.1 cycles
cpu0_STLB TOTAL        ACCESS:    1009196 HIT:     982500 MISS:      26696
cpu0_STLB LOAD         ACCESS:    1009196 HIT:     982500 MISS:      26696
cpu0_STLB RFO          ACCESS:          0 HIT:          0 MISS:          0
cpu0_STLB PREFETCH     ACCESS:          0 HIT:          0 MISS:          0
cpu0_STLB WRITE        ACCESS:          0 HIT:          0 MISS:          0
cpu0_STLB TRANSLATION  ACCESS:          0 HIT:          0 MISS:          0
cpu0_STLB PREFETCH REQUESTED:          0 ISSUED:          0 USEFUL:          0 USELESS:          0
cpu0_STLB AVERAGE MISS LATENCY: 383 cycles

DRAM Statistics

Channel 0 RQ ROW_BUFFER_HIT:      81008
  ROW_BUFFER_MISS:     337848
 AVG DBUS CONGESTED CYCLE: 3.867
WQ ROW_BUFFER_HIT: Channel 0 
  ROW_BUFFER_MISS:       7313
  FULL:      47878
