WARNING: physical memory size is smaller than virtual memory size.

*** ChampSim Multicore Out-of-Order Simulator ***
Warmup Instructions: 50000000
Simulation Instructions: 600000000
Number of CPUs: 1
Page size: 4096

Off-chip DRAM Size: 4 GiB Channels: 1 Width: 64-bit Data Race: 3200 MT/s
Heartbeat CPU 0 instructions: 10000000 cycles: 2500061 heartbeat IPC: 4 cumulative IPC: 4 (Simulation time: 00 hr 00 min 35 sec)
Heartbeat CPU 0 instructions: 20000000 cycles: 5000061 heartbeat IPC: 4 cumulative IPC: 4 (Simulation time: 00 hr 01 min 07 sec)
Heartbeat CPU 0 instructions: 30000000 cycles: 7500061 heartbeat IPC: 4 cumulative IPC: 4 (Simulation time: 00 hr 01 min 37 sec)
Heartbeat CPU 0 instructions: 40000000 cycles: 10000061 heartbeat IPC: 4 cumulative IPC: 4 (Simulation time: 00 hr 02 min 07 sec)
Heartbeat CPU 0 instructions: 50000000 cycles: 12500061 heartbeat IPC: 4 cumulative IPC: 4 (Simulation time: 00 hr 02 min 37 sec)
Warmup finished CPU 0 instructions: 50000000 cycles: 12500062 cumulative IPC: 4 (Simulation time: 00 hr 02 min 37 sec)
Warmup complete CPU 0 instructions: 50000000 cycles: 12500062 cumulative IPC: 4 (Simulation time: 00 hr 02 min 37 sec)
Heartbeat CPU 0 instructions: 60000002 cycles: 16910711 heartbeat IPC: 2.267 cumulative IPC: 2.267 (Simulation time: 00 hr 03 min 20 sec)
Heartbeat CPU 0 instructions: 70000003 cycles: 21896385 heartbeat IPC: 2.006 cumulative IPC: 2.128 (Simulation time: 00 hr 04 min 02 sec)
Heartbeat CPU 0 instructions: 80000001 cycles: 27245595 heartbeat IPC: 1.869 cumulative IPC: 2.035 (Simulation time: 00 hr 04 min 46 sec)
Heartbeat CPU 0 instructions: 90000000 cycles: 31544084 heartbeat IPC: 2.326 cumulative IPC: 2.1 (Simulation time: 00 hr 05 min 27 sec)
Heartbeat CPU 0 instructions: 100000003 cycles: 36403206 heartbeat IPC: 2.058 cumulative IPC: 2.092 (Simulation time: 00 hr 06 min 10 sec)
Heartbeat CPU 0 instructions: 110000002 cycles: 41280710 heartbeat IPC: 2.05 cumulative IPC: 2.085 (Simulation time: 00 hr 06 min 54 sec)
Heartbeat CPU 0 instructions: 120000001 cycles: 46277013 heartbeat IPC: 2.001 cumulative IPC: 2.072 (Simulation time: 00 hr 07 min 38 sec)
Heartbeat CPU 0 instructions: 130000003 cycles: 50847689 heartbeat IPC: 2.188 cumulative IPC: 2.086 (Simulation time: 00 hr 08 min 20 sec)
Heartbeat CPU 0 instructions: 140000002 cycles: 55740962 heartbeat IPC: 2.044 cumulative IPC: 2.081 (Simulation time: 00 hr 09 min 03 sec)
Heartbeat CPU 0 instructions: 150000001 cycles: 60412379 heartbeat IPC: 2.141 cumulative IPC: 2.087 (Simulation time: 00 hr 09 min 45 sec)
Heartbeat CPU 0 instructions: 160000000 cycles: 65052851 heartbeat IPC: 2.155 cumulative IPC: 2.093 (Simulation time: 00 hr 10 min 27 sec)
Heartbeat CPU 0 instructions: 170000000 cycles: 70389352 heartbeat IPC: 1.874 cumulative IPC: 2.073 (Simulation time: 00 hr 11 min 12 sec)
Heartbeat CPU 0 instructions: 180000001 cycles: 76110957 heartbeat IPC: 1.748 cumulative IPC: 2.044 (Simulation time: 00 hr 11 min 59 sec)
Heartbeat CPU 0 instructions: 190000002 cycles: 80587462 heartbeat IPC: 2.234 cumulative IPC: 2.056 (Simulation time: 00 hr 12 min 41 sec)
Heartbeat CPU 0 instructions: 200000002 cycles: 85496926 heartbeat IPC: 2.037 cumulative IPC: 2.055 (Simulation time: 00 hr 13 min 24 sec)
Heartbeat CPU 0 instructions: 210000000 cycles: 90502599 heartbeat IPC: 1.998 cumulative IPC: 2.051 (Simulation time: 00 hr 14 min 07 sec)
Heartbeat CPU 0 instructions: 220000001 cycles: 95428690 heartbeat IPC: 2.03 cumulative IPC: 2.05 (Simulation time: 00 hr 14 min 49 sec)
Heartbeat CPU 0 instructions: 230000002 cycles: 100677662 heartbeat IPC: 1.905 cumulative IPC: 2.041 (Simulation time: 00 hr 15 min 34 sec)
Heartbeat CPU 0 instructions: 240000001 cycles: 105644061 heartbeat IPC: 2.014 cumulative IPC: 2.04 (Simulation time: 00 hr 16 min 17 sec)
Heartbeat CPU 0 instructions: 250000003 cycles: 110831468 heartbeat IPC: 1.928 cumulative IPC: 2.034 (Simulation time: 00 hr 17 min 01 sec)
Heartbeat CPU 0 instructions: 260000001 cycles: 115693654 heartbeat IPC: 2.057 cumulative IPC: 2.035 (Simulation time: 00 hr 18 min 20 sec)
Heartbeat CPU 0 instructions: 270000000 cycles: 123443392 heartbeat IPC: 1.29 cumulative IPC: 1.983 (Simulation time: 00 hr 20 min 10 sec)
Heartbeat CPU 0 instructions: 280000000 cycles: 135137102 heartbeat IPC: 0.8552 cumulative IPC: 1.875 (Simulation time: 00 hr 22 min 40 sec)
Heartbeat CPU 0 instructions: 290000001 cycles: 145420567 heartbeat IPC: 0.9724 cumulative IPC: 1.806 (Simulation time: 00 hr 24 min 57 sec)
Heartbeat CPU 0 instructions: 300000003 cycles: 152986918 heartbeat IPC: 1.322 cumulative IPC: 1.78 (Simulation time: 00 hr 26 min 27 sec)
Heartbeat CPU 0 instructions: 310000004 cycles: 164224572 heartbeat IPC: 0.8899 cumulative IPC: 1.714 (Simulation time: 00 hr 27 min 45 sec)
Heartbeat CPU 0 instructions: 320000004 cycles: 170022064 heartbeat IPC: 1.725 cumulative IPC: 1.714 (Simulation time: 00 hr 28 min 35 sec)
Heartbeat CPU 0 instructions: 330000000 cycles: 175332091 heartbeat IPC: 1.883 cumulative IPC: 1.72 (Simulation time: 00 hr 29 min 22 sec)
Heartbeat CPU 0 instructions: 340000001 cycles: 180608594 heartbeat IPC: 1.895 cumulative IPC: 1.725 (Simulation time: 00 hr 30 min 07 sec)
Heartbeat CPU 0 instructions: 350000000 cycles: 186073770 heartbeat IPC: 1.83 cumulative IPC: 1.728 (Simulation time: 00 hr 30 min 54 sec)
Heartbeat CPU 0 instructions: 360000003 cycles: 191281195 heartbeat IPC: 1.92 cumulative IPC: 1.734 (Simulation time: 00 hr 31 min 40 sec)
Heartbeat CPU 0 instructions: 370000001 cycles: 196396420 heartbeat IPC: 1.955 cumulative IPC: 1.74 (Simulation time: 00 hr 32 min 25 sec)
Heartbeat CPU 0 instructions: 380000004 cycles: 201789593 heartbeat IPC: 1.854 cumulative IPC: 1.743 (Simulation time: 00 hr 33 min 11 sec)
Heartbeat CPU 0 instructions: 390000002 cycles: 207283053 heartbeat IPC: 1.82 cumulative IPC: 1.746 (Simulation time: 00 hr 33 min 58 sec)
Heartbeat CPU 0 instructions: 400000000 cycles: 212824803 heartbeat IPC: 1.804 cumulative IPC: 1.747 (Simulation time: 00 hr 34 min 45 sec)
Heartbeat CPU 0 instructions: 410000000 cycles: 221315211 heartbeat IPC: 1.178 cumulative IPC: 1.724 (Simulation time: 00 hr 35 min 48 sec)
Heartbeat CPU 0 instructions: 420000001 cycles: 233389931 heartbeat IPC: 0.8282 cumulative IPC: 1.675 (Simulation time: 00 hr 37 min 09 sec)
Heartbeat CPU 0 instructions: 430000000 cycles: 240964548 heartbeat IPC: 1.32 cumulative IPC: 1.663 (Simulation time: 00 hr 38 min 10 sec)
Heartbeat CPU 0 instructions: 440000002 cycles: 248744712 heartbeat IPC: 1.285 cumulative IPC: 1.651 (Simulation time: 00 hr 39 min 11 sec)
Heartbeat CPU 0 instructions: 450000003 cycles: 255874868 heartbeat IPC: 1.402 cumulative IPC: 1.644 (Simulation time: 00 hr 40 min 09 sec)
Heartbeat CPU 0 instructions: 460000002 cycles: 267672147 heartbeat IPC: 0.8477 cumulative IPC: 1.607 (Simulation time: 00 hr 41 min 30 sec)
Heartbeat CPU 0 instructions: 470000000 cycles: 277793122 heartbeat IPC: 0.988 cumulative IPC: 1.583 (Simulation time: 00 hr 42 min 41 sec)
Heartbeat CPU 0 instructions: 480000000 cycles: 283308854 heartbeat IPC: 1.813 cumulative IPC: 1.588 (Simulation time: 00 hr 43 min 27 sec)
Heartbeat CPU 0 instructions: 490000001 cycles: 288989312 heartbeat IPC: 1.76 cumulative IPC: 1.591 (Simulation time: 00 hr 44 min 14 sec)
Heartbeat CPU 0 instructions: 500000002 cycles: 294622030 heartbeat IPC: 1.775 cumulative IPC: 1.595 (Simulation time: 00 hr 44 min 59 sec)
Heartbeat CPU 0 instructions: 510000000 cycles: 300253462 heartbeat IPC: 1.776 cumulative IPC: 1.599 (Simulation time: 00 hr 45 min 45 sec)
Heartbeat CPU 0 instructions: 520000000 cycles: 305887238 heartbeat IPC: 1.775 cumulative IPC: 1.602 (Simulation time: 00 hr 46 min 30 sec)
Heartbeat CPU 0 instructions: 530000001 cycles: 317041568 heartbeat IPC: 0.8965 cumulative IPC: 1.576 (Simulation time: 00 hr 47 min 43 sec)
Heartbeat CPU 0 instructions: 540000000 cycles: 327733248 heartbeat IPC: 0.9353 cumulative IPC: 1.554 (Simulation time: 00 hr 48 min 51 sec)
Heartbeat CPU 0 instructions: 550000002 cycles: 340760277 heartbeat IPC: 0.7676 cumulative IPC: 1.523 (Simulation time: 00 hr 50 min 07 sec)
Heartbeat CPU 0 instructions: 560000004 cycles: 345608910 heartbeat IPC: 2.062 cumulative IPC: 1.531 (Simulation time: 00 hr 50 min 43 sec)
Heartbeat CPU 0 instructions: 570000001 cycles: 350015125 heartbeat IPC: 2.27 cumulative IPC: 1.541 (Simulation time: 00 hr 51 min 16 sec)
Heartbeat CPU 0 instructions: 580000003 cycles: 354248425 heartbeat IPC: 2.362 cumulative IPC: 1.551 (Simulation time: 00 hr 51 min 48 sec)
Heartbeat CPU 0 instructions: 590000001 cycles: 359146015 heartbeat IPC: 2.042 cumulative IPC: 1.558 (Simulation time: 00 hr 52 min 20 sec)
Heartbeat CPU 0 instructions: 600000003 cycles: 363785784 heartbeat IPC: 2.155 cumulative IPC: 1.566 (Simulation time: 00 hr 52 min 46 sec)
Heartbeat CPU 0 instructions: 610000001 cycles: 368639274 heartbeat IPC: 2.06 cumulative IPC: 1.572 (Simulation time: 00 hr 53 min 09 sec)
Heartbeat CPU 0 instructions: 620000000 cycles: 373702223 heartbeat IPC: 1.975 cumulative IPC: 1.578 (Simulation time: 00 hr 53 min 30 sec)
Heartbeat CPU 0 instructions: 630000002 cycles: 377946903 heartbeat IPC: 2.356 cumulative IPC: 1.587 (Simulation time: 00 hr 53 min 48 sec)
Heartbeat CPU 0 instructions: 640000004 cycles: 383264229 heartbeat IPC: 1.881 cumulative IPC: 1.591 (Simulation time: 00 hr 54 min 06 sec)
Heartbeat CPU 0 instructions: 650000001 cycles: 388024529 heartbeat IPC: 2.101 cumulative IPC: 1.598 (Simulation time: 00 hr 54 min 22 sec)
Simulation finished CPU 0 instructions: 600000001 cycles: 375524468 cumulative IPC: 1.598 (Simulation time: 00 hr 54 min 22 sec)
Simulation complete CPU 0 instructions: 600000001 cycles: 375524468 cumulative IPC: 1.598 (Simulation time: 00 hr 54 min 22 sec)

ChampSim completed all CPUs

=== Simulation ===
CPU 0 runs traces/400.perlbench-50B.champsimtrace.xz
Region of Interest Statistics

CPU 0 cumulative IPC: 1.598 instructions: 600000001 cycles: 375524468
CPU 0 Branch Prediction Accuracy: 93.83% MPKI: 12.71 Average ROB Occupancy at Mispredict: 29.32
Branch type MPKI
BRANCH_DIRECT_JUMP: 0.0176
BRANCH_INDIRECT: 0.38
BRANCH_CONDITIONAL: 11.9
BRANCH_DIRECT_CALL: 0.0067
BRANCH_INDIRECT_CALL: 0.431
BRANCH_RETURN: 0.0161

LLC TOTAL        ACCESS:     512667 HIT:     185220 MISS:     327447
LLC LOAD         ACCESS:     377148 HIT:     101114 MISS:     276034
LLC RFO          ACCESS:      32811 HIT:      14212 MISS:      18599
LLC PREFETCH     ACCESS:          0 HIT:          0 MISS:          0
LLC WRITE        ACCESS:      84585 HIT:      63913 MISS:      20672
LLC TRANSLATION  ACCESS:      18123 HIT:       5981 MISS:      12142
LLC PREFETCH REQUESTED:          0 ISSUED:          0 USEFUL:          0 USELESS:          0
LLC AVERAGE MISS LATENCY: 501.7 cycles
cpu0_DTLB TOTAL        ACCESS:  156749025 HIT:  155448070 MISS:    1300955
cpu0_DTLB LOAD         ACCESS:  156749025 HIT:  155448070 MISS:    1300955
cpu0_DTLB RFO          ACCESS:          0 HIT:          0 MISS:          0
cpu0_DTLB PREFETCH     ACCESS:          0 HIT:          0 MISS:          0
cpu0_DTLB WRITE        ACCESS:          0 HIT:          0 MISS:          0
cpu0_DTLB TRANSLATION  ACCESS:          0 HIT:          0 MISS:          0
cpu0_DTLB PREFETCH REQUESTED:          0 ISSUED:          0 USEFUL:          0 USELESS:          0
cpu0_DTLB AVERAGE MISS LATENCY: 12.15 cycles
cpu0_ITLB TOTAL        ACCESS:    8932730 HIT:    8733891 MISS:     198839
cpu0_ITLB LOAD         ACCESS:    8932730 HIT:    8733891 MISS:     198839
cpu0_ITLB RFO          ACCESS:          0 HIT:          0 MISS:          0
cpu0_ITLB PREFETCH     ACCESS:          0 HIT:          0 MISS:          0
cpu0_ITLB WRITE        ACCESS:          0 HIT:          0 MISS:          0
cpu0_ITLB TRANSLATION  ACCESS:          0 HIT:          0 MISS:          0
cpu0_ITLB PREFETCH REQUESTED:          0 ISSUED:          0 USEFUL:          0 USELESS:          0
cpu0_ITLB AVERAGE MISS LATENCY: 3.166 cycles
cpu0_L1D TOTAL        ACCESS:  203620025 HIT:  200771893 MISS:    2848132
cpu0_L1D LOAD         ACCESS:  117944013 HIT:  115602135 MISS:    2341878
cpu0_L1D RFO          ACCESS:          0 HIT:          0 MISS:          0
cpu0_L1D PREFETCH     ACCESS:          0 HIT:          0 MISS:          0
cpu0_L1D WRITE        ACCESS:   85647472 HIT:   85167769 MISS:     479703
cpu0_L1D TRANSLATION  ACCESS:      28540 HIT:       1989 MISS:      26551
cpu0_L1D PREFETCH REQUESTED:          0 ISSUED:          0 USEFUL:          0 USELESS:          0
cpu0_L1D AVERAGE MISS LATENCY: 62.29 cycles
cpu0_L1I TOTAL        ACCESS:   10371462 HIT:    8572396 MISS:    1799066
cpu0_L1I LOAD         ACCESS:   10371462 HIT:    8572396 MISS:    1799066
cpu0_L1I RFO          ACCESS:          0 HIT:          0 MISS:          0
cpu0_L1I PREFETCH     ACCESS:          0 HIT:          0 MISS:          0
cpu0_L1I WRITE        ACCESS:          0 HIT:          0 MISS:          0
cpu0_L1I TRANSLATION  ACCESS:          0 HIT:          0 MISS:          0
cpu0_L1I PREFETCH REQUESTED:          0 ISSUED:          0 USEFUL:          0 USELESS:          0
cpu0_L1I AVERAGE MISS LATENCY: 9.811 cycles
cpu0_L2C TOTAL        ACCESS:    3235485 HIT:    2806433 MISS:     429052
cpu0_L2C LOAD         ACCESS:    2711761 HIT:    2334613 MISS:     377148
cpu0_L2C RFO          ACCESS:     133697 HIT:     100886 MISS:      32811
cpu0_L2C PREFETCH     ACCESS:          0 HIT:          0 MISS:          0
cpu0_L2C WRITE        ACCESS:     363557 HIT:     362587 MISS:        970
cpu0_L2C TRANSLATION  ACCESS:      26470 HIT:       8347 MISS:      18123
cpu0_L2C PREFETCH REQUESTED:          0 ISSUED:          0 USEFUL:          0 USELESS:          0
cpu0_L2C AVERAGE MISS LATENCY: 403.5 cycles
cpu0_STLB TOTAL        ACCESS:    1009193 HIT:     982501 MISS:      26692
cpu0_STLB LOAD         ACCESS:    1009193 HIT:     982501 MISS:      26692
cpu0_STLB RFO          ACCESS:          0 HIT:          0 MISS:          0
cpu0_STLB PREFETCH     ACCESS:          0 HIT:          0 MISS:          0
cpu0_STLB WRITE        ACCESS:          0 HIT:          0 MISS:          0
cpu0_STLB TRANSLATION  ACCESS:          0 HIT:          0 MISS:          0
cpu0_STLB PREFETCH REQUESTED:          0 ISSUED:          0 USEFUL:          0 USELESS:          0
cpu0_STLB AVERAGE MISS LATENCY: 372.1 cycles

DRAM Statistics

Channel 0 RQ ROW_BUFFER_HIT:      56665
  ROW_BUFFER_MISS:     250059
 AVG DBUS CONGESTED CYCLE: 3.781
WQ ROW_BUFFER_HIT: Channel 0 
  ROW_BUFFER_MISS:       9491
  FULL:      31804
Final OPTGen Hits: 3118
Final OPTGen Access: 7047
Final OPTGEN Hit Rate: 44.2458
