WARNING: physical memory size is smaller than virtual memory size.

*** ChampSim Multicore Out-of-Order Simulator ***
Warmup Instructions: 50000000
Simulation Instructions: 600000000
Number of CPUs: 1
Page size: 4096

CPU 0 Tage branch predictor
Off-chip DRAM Size: 4 GiB Channels: 1 Width: 64-bit Data Race: 3200 MT/s
Heartbeat CPU 0 instructions: 10000001 cycles: 2500318 heartbeat IPC: 3.999 cumulative IPC: 3.999 (Simulation time: 00 hr 04 min 36 sec)
Heartbeat CPU 0 instructions: 20000002 cycles: 5037099 heartbeat IPC: 3.942 cumulative IPC: 3.971 (Simulation time: 00 hr 09 min 06 sec)
Heartbeat CPU 0 instructions: 30000002 cycles: 7537099 heartbeat IPC: 4 cumulative IPC: 3.98 (Simulation time: 00 hr 13 min 17 sec)
Heartbeat CPU 0 instructions: 40000002 cycles: 10037099 heartbeat IPC: 4 cumulative IPC: 3.985 (Simulation time: 00 hr 17 min 27 sec)
Heartbeat CPU 0 instructions: 50000002 cycles: 12537099 heartbeat IPC: 4 cumulative IPC: 3.988 (Simulation time: 00 hr 21 min 38 sec)
Warmup finished CPU 0 instructions: 50000002 cycles: 12537100 cumulative IPC: 3.988 (Simulation time: 00 hr 21 min 38 sec)
Warmup complete CPU 0 instructions: 50000002 cycles: 12537100 cumulative IPC: 3.988 (Simulation time: 00 hr 21 min 38 sec)
Heartbeat CPU 0 instructions: 60000001 cycles: 15522958 heartbeat IPC: 3.349 cumulative IPC: 3.349 (Simulation time: 00 hr 26 min 40 sec)
Heartbeat CPU 0 instructions: 70000004 cycles: 18605164 heartbeat IPC: 3.244 cumulative IPC: 3.296 (Simulation time: 00 hr 31 min 46 sec)
Heartbeat CPU 0 instructions: 80000001 cycles: 21662157 heartbeat IPC: 3.271 cumulative IPC: 3.288 (Simulation time: 00 hr 36 min 49 sec)
Heartbeat CPU 0 instructions: 90000001 cycles: 24614668 heartbeat IPC: 3.387 cumulative IPC: 3.312 (Simulation time: 00 hr 41 min 47 sec)
Heartbeat CPU 0 instructions: 100000000 cycles: 27537053 heartbeat IPC: 3.422 cumulative IPC: 3.333 (Simulation time: 00 hr 46 min 43 sec)
Heartbeat CPU 0 instructions: 110000000 cycles: 30490977 heartbeat IPC: 3.385 cumulative IPC: 3.342 (Simulation time: 00 hr 51 min 44 sec)
Heartbeat CPU 0 instructions: 120000001 cycles: 33478221 heartbeat IPC: 3.348 cumulative IPC: 3.343 (Simulation time: 00 hr 56 min 38 sec)
Heartbeat CPU 0 instructions: 130000001 cycles: 36345370 heartbeat IPC: 3.488 cumulative IPC: 3.36 (Simulation time: 01 hr 01 min 38 sec)
Heartbeat CPU 0 instructions: 140000001 cycles: 39404526 heartbeat IPC: 3.269 cumulative IPC: 3.35 (Simulation time: 01 hr 06 min 40 sec)
Heartbeat CPU 0 instructions: 150000001 cycles: 42428539 heartbeat IPC: 3.307 cumulative IPC: 3.345 (Simulation time: 01 hr 11 min 42 sec)
Heartbeat CPU 0 instructions: 160000004 cycles: 45462203 heartbeat IPC: 3.296 cumulative IPC: 3.341 (Simulation time: 01 hr 16 min 44 sec)
Heartbeat CPU 0 instructions: 170000004 cycles: 52047951 heartbeat IPC: 1.518 cumulative IPC: 3.037 (Simulation time: 01 hr 24 min 15 sec)
Heartbeat CPU 0 instructions: 180000004 cycles: 58749301 heartbeat IPC: 1.492 cumulative IPC: 2.813 (Simulation time: 01 hr 31 min 57 sec)
Heartbeat CPU 0 instructions: 190000001 cycles: 67239773 heartbeat IPC: 1.178 cumulative IPC: 2.559 (Simulation time: 01 hr 40 min 52 sec)
Heartbeat CPU 0 instructions: 200000004 cycles: 70210923 heartbeat IPC: 3.366 cumulative IPC: 2.601 (Simulation time: 01 hr 45 min 52 sec)
Heartbeat CPU 0 instructions: 210000001 cycles: 73172571 heartbeat IPC: 3.376 cumulative IPC: 2.639 (Simulation time: 01 hr 50 min 53 sec)
Heartbeat CPU 0 instructions: 220000000 cycles: 76068512 heartbeat IPC: 3.453 cumulative IPC: 2.676 (Simulation time: 01 hr 55 min 48 sec)
Heartbeat CPU 0 instructions: 230000002 cycles: 79096838 heartbeat IPC: 3.302 cumulative IPC: 2.704 (Simulation time: 02 hr 00 min 52 sec)
Heartbeat CPU 0 instructions: 240000003 cycles: 82140488 heartbeat IPC: 3.286 cumulative IPC: 2.73 (Simulation time: 02 hr 05 min 58 sec)
Heartbeat CPU 0 instructions: 250000000 cycles: 85170610 heartbeat IPC: 3.3 cumulative IPC: 2.754 (Simulation time: 02 hr 10 min 59 sec)
Heartbeat CPU 0 instructions: 260000002 cycles: 88150483 heartbeat IPC: 3.356 cumulative IPC: 2.777 (Simulation time: 02 hr 15 min 57 sec)
Heartbeat CPU 0 instructions: 270000002 cycles: 91067078 heartbeat IPC: 3.429 cumulative IPC: 2.801 (Simulation time: 02 hr 20 min 55 sec)
Heartbeat CPU 0 instructions: 280000002 cycles: 93961435 heartbeat IPC: 3.455 cumulative IPC: 2.825 (Simulation time: 02 hr 25 min 52 sec)
Heartbeat CPU 0 instructions: 290000002 cycles: 96926221 heartbeat IPC: 3.373 cumulative IPC: 2.844 (Simulation time: 02 hr 31 min 03 sec)
Heartbeat CPU 0 instructions: 300000003 cycles: 99842485 heartbeat IPC: 3.429 cumulative IPC: 2.864 (Simulation time: 02 hr 36 min 05 sec)
Heartbeat CPU 0 instructions: 310000001 cycles: 102888881 heartbeat IPC: 3.283 cumulative IPC: 2.878 (Simulation time: 02 hr 41 min 09 sec)
Heartbeat CPU 0 instructions: 320000003 cycles: 105910628 heartbeat IPC: 3.309 cumulative IPC: 2.892 (Simulation time: 02 hr 46 min 09 sec)
Heartbeat CPU 0 instructions: 330000003 cycles: 108916302 heartbeat IPC: 3.327 cumulative IPC: 2.905 (Simulation time: 02 hr 51 min 12 sec)
Heartbeat CPU 0 instructions: 340000000 cycles: 115770740 heartbeat IPC: 1.459 cumulative IPC: 2.809 (Simulation time: 02 hr 59 min 00 sec)
Heartbeat CPU 0 instructions: 350000000 cycles: 122978681 heartbeat IPC: 1.387 cumulative IPC: 2.716 (Simulation time: 03 hr 07 min 05 sec)
Heartbeat CPU 0 instructions: 360000004 cycles: 131530882 heartbeat IPC: 1.169 cumulative IPC: 2.605 (Simulation time: 03 hr 16 min 00 sec)
Heartbeat CPU 0 instructions: 370000000 cycles: 134503702 heartbeat IPC: 3.364 cumulative IPC: 2.624 (Simulation time: 03 hr 20 min 59 sec)
Heartbeat CPU 0 instructions: 380000003 cycles: 137425408 heartbeat IPC: 3.423 cumulative IPC: 2.642 (Simulation time: 03 hr 25 min 57 sec)
Heartbeat CPU 0 instructions: 390000002 cycles: 140405155 heartbeat IPC: 3.356 cumulative IPC: 2.659 (Simulation time: 03 hr 30 min 57 sec)
Heartbeat CPU 0 instructions: 400000004 cycles: 143312398 heartbeat IPC: 3.44 cumulative IPC: 2.676 (Simulation time: 03 hr 35 min 52 sec)
Heartbeat CPU 0 instructions: 410000002 cycles: 146253922 heartbeat IPC: 3.4 cumulative IPC: 2.692 (Simulation time: 03 hr 40 min 52 sec)
Heartbeat CPU 0 instructions: 420000003 cycles: 149387800 heartbeat IPC: 3.191 cumulative IPC: 2.704 (Simulation time: 03 hr 46 min 01 sec)
Heartbeat CPU 0 instructions: 430000001 cycles: 152412531 heartbeat IPC: 3.306 cumulative IPC: 2.717 (Simulation time: 03 hr 51 min 09 sec)
Heartbeat CPU 0 instructions: 440000004 cycles: 155556917 heartbeat IPC: 3.18 cumulative IPC: 2.727 (Simulation time: 03 hr 56 min 11 sec)
Heartbeat CPU 0 instructions: 450000002 cycles: 158485942 heartbeat IPC: 3.414 cumulative IPC: 2.741 (Simulation time: 04 hr 01 min 08 sec)
Heartbeat CPU 0 instructions: 460000000 cycles: 161426179 heartbeat IPC: 3.401 cumulative IPC: 2.754 (Simulation time: 04 hr 06 min 09 sec)
Heartbeat CPU 0 instructions: 470000001 cycles: 164286921 heartbeat IPC: 3.496 cumulative IPC: 2.768 (Simulation time: 04 hr 11 min 01 sec)
Heartbeat CPU 0 instructions: 480000003 cycles: 167377369 heartbeat IPC: 3.236 cumulative IPC: 2.777 (Simulation time: 04 hr 16 min 03 sec)
Heartbeat CPU 0 instructions: 490000004 cycles: 170209542 heartbeat IPC: 3.531 cumulative IPC: 2.791 (Simulation time: 04 hr 20 min 57 sec)
Heartbeat CPU 0 instructions: 500000004 cycles: 173199217 heartbeat IPC: 3.345 cumulative IPC: 2.801 (Simulation time: 04 hr 25 min 56 sec)
Heartbeat CPU 0 instructions: 510000003 cycles: 176269486 heartbeat IPC: 3.257 cumulative IPC: 2.809 (Simulation time: 04 hr 31 min 05 sec)
Heartbeat CPU 0 instructions: 520000001 cycles: 179164916 heartbeat IPC: 3.454 cumulative IPC: 2.821 (Simulation time: 04 hr 36 min 08 sec)
Heartbeat CPU 0 instructions: 530000001 cycles: 182182918 heartbeat IPC: 3.313 cumulative IPC: 2.829 (Simulation time: 04 hr 41 min 12 sec)
Heartbeat CPU 0 instructions: 540000000 cycles: 185146020 heartbeat IPC: 3.375 cumulative IPC: 2.839 (Simulation time: 04 hr 46 min 10 sec)
Heartbeat CPU 0 instructions: 550000001 cycles: 188135579 heartbeat IPC: 3.345 cumulative IPC: 2.847 (Simulation time: 04 hr 51 min 11 sec)
Heartbeat CPU 0 instructions: 560000000 cycles: 191267233 heartbeat IPC: 3.193 cumulative IPC: 2.853 (Simulation time: 04 hr 56 min 22 sec)
Heartbeat CPU 0 instructions: 570000004 cycles: 196543356 heartbeat IPC: 1.895 cumulative IPC: 2.826 (Simulation time: 05 hr 03 min 01 sec)
Heartbeat CPU 0 instructions: 580000003 cycles: 202936532 heartbeat IPC: 1.564 cumulative IPC: 2.784 (Simulation time: 05 hr 10 min 33 sec)
Heartbeat CPU 0 instructions: 590000002 cycles: 213775566 heartbeat IPC: 0.9226 cumulative IPC: 2.683 (Simulation time: 05 hr 21 min 05 sec)
Heartbeat CPU 0 instructions: 600000004 cycles: 216879085 heartbeat IPC: 3.222 cumulative IPC: 2.692 (Simulation time: 05 hr 26 min 27 sec)
Heartbeat CPU 0 instructions: 610000002 cycles: 219850821 heartbeat IPC: 3.365 cumulative IPC: 2.701 (Simulation time: 05 hr 31 min 49 sec)
Heartbeat CPU 0 instructions: 620000001 cycles: 222624767 heartbeat IPC: 3.605 cumulative IPC: 2.713 (Simulation time: 05 hr 36 min 53 sec)
Heartbeat CPU 0 instructions: 630000002 cycles: 225599709 heartbeat IPC: 3.361 cumulative IPC: 2.722 (Simulation time: 05 hr 41 min 56 sec)
Heartbeat CPU 0 instructions: 640000004 cycles: 228550621 heartbeat IPC: 3.389 cumulative IPC: 2.731 (Simulation time: 05 hr 47 min 14 sec)
Heartbeat CPU 0 instructions: 650000000 cycles: 231298995 heartbeat IPC: 3.639 cumulative IPC: 2.743 (Simulation time: 05 hr 52 min 17 sec)
Simulation finished CPU 0 instructions: 600000001 cycles: 218761897 cumulative IPC: 2.743 (Simulation time: 05 hr 52 min 17 sec)
Simulation complete CPU 0 instructions: 600000001 cycles: 218761897 cumulative IPC: 2.743 (Simulation time: 05 hr 52 min 17 sec)

ChampSim completed all CPUs

=== Simulation ===
CPU 0 runs traces/400.perlbench-41B.champsimtrace.xz
Region of Interest Statistics

CPU 0 cumulative IPC: 2.743 instructions: 600000001 cycles: 218761897
CPU 0 Branch Prediction Accuracy: 99.19% MPKI: 1.684 Average ROB Occupancy at Mispredict: 101.9
Branch type MPKI
BRANCH_DIRECT_JUMP: 0.0123
BRANCH_INDIRECT: 0.323
BRANCH_CONDITIONAL: 1.14
BRANCH_DIRECT_CALL: 0.0043
BRANCH_INDIRECT_CALL: 0.2
BRANCH_RETURN: 0.00828

LLC TOTAL        ACCESS:     463794 HIT:     199450 MISS:     264344
LLC LOAD         ACCESS:     309661 HIT:     128678 MISS:     180983
LLC RFO          ACCESS:      25100 HIT:       8895 MISS:      16205
LLC PREFETCH     ACCESS:      49131 HIT:      26790 MISS:      22341
LLC WRITE        ACCESS:      64037 HIT:      32047 MISS:      31990
LLC TRANSLATION  ACCESS:      15865 HIT:       3040 MISS:      12825
LLC PREFETCH REQUESTED:      49131 ISSUED:      49131 USEFUL:      12631 USELESS:       6823
LLC AVERAGE MISS LATENCY: 572.4 cycles
cpu0_DTLB TOTAL        ACCESS:  129731543 HIT:  129028474 MISS:     703069
cpu0_DTLB LOAD         ACCESS:  129731543 HIT:  129028474 MISS:     703069
cpu0_DTLB RFO          ACCESS:          0 HIT:          0 MISS:          0
cpu0_DTLB PREFETCH     ACCESS:          0 HIT:          0 MISS:          0
cpu0_DTLB WRITE        ACCESS:          0 HIT:          0 MISS:          0
cpu0_DTLB TRANSLATION  ACCESS:          0 HIT:          0 MISS:          0
cpu0_DTLB PREFETCH REQUESTED:          0 ISSUED:          0 USEFUL:          0 USELESS:          0
cpu0_DTLB AVERAGE MISS LATENCY: 17.43 cycles
cpu0_ITLB TOTAL        ACCESS:    4876880 HIT:    4814234 MISS:      62646
cpu0_ITLB LOAD         ACCESS:    4876880 HIT:    4814234 MISS:      62646
cpu0_ITLB RFO          ACCESS:          0 HIT:          0 MISS:          0
cpu0_ITLB PREFETCH     ACCESS:          0 HIT:          0 MISS:          0
cpu0_ITLB WRITE        ACCESS:          0 HIT:          0 MISS:          0
cpu0_ITLB TRANSLATION  ACCESS:          0 HIT:          0 MISS:          0
cpu0_ITLB PREFETCH REQUESTED:          0 ISSUED:          0 USEFUL:          0 USELESS:          0
cpu0_ITLB AVERAGE MISS LATENCY: 6.088 cycles
cpu0_L1D TOTAL        ACCESS:  174337282 HIT:  172964299 MISS:    1372983
cpu0_L1D LOAD         ACCESS:   91314840 HIT:   90259238 MISS:    1055602
cpu0_L1D RFO          ACCESS:          0 HIT:          0 MISS:          0
cpu0_L1D PREFETCH     ACCESS:          0 HIT:          0 MISS:          0
cpu0_L1D WRITE        ACCESS:   82997972 HIT:   82703460 MISS:     294512
cpu0_L1D TRANSLATION  ACCESS:      24470 HIT:       1601 MISS:      22869
cpu0_L1D PREFETCH REQUESTED:          0 ISSUED:          0 USEFUL:          0 USELESS:          0
cpu0_L1D AVERAGE MISS LATENCY: 98.74 cycles
cpu0_L1I TOTAL        ACCESS:    5655579 HIT:    4849655 MISS:     805924
cpu0_L1I LOAD         ACCESS:    5655579 HIT:    4849655 MISS:     805924
cpu0_L1I RFO          ACCESS:          0 HIT:          0 MISS:          0
cpu0_L1I PREFETCH     ACCESS:          0 HIT:          0 MISS:          0
cpu0_L1I WRITE        ACCESS:          0 HIT:          0 MISS:          0
cpu0_L1I TRANSLATION  ACCESS:          0 HIT:          0 MISS:          0
cpu0_L1I PREFETCH REQUESTED:          0 ISSUED:          0 USEFUL:          0 USELESS:          0
cpu0_L1I AVERAGE MISS LATENCY: 12.49 cycles
cpu0_L2C TOTAL        ACCESS:    1381529 HIT:    1030014 MISS:     351515
cpu0_L2C LOAD         ACCESS:    1124029 HIT:     814368 MISS:     309661
cpu0_L2C RFO          ACCESS:      64472 HIT:      39372 MISS:      25100
cpu0_L2C PREFETCH     ACCESS:          0 HIT:          0 MISS:          0
cpu0_L2C WRITE        ACCESS:     170241 HIT:     169352 MISS:        889
cpu0_L2C TRANSLATION  ACCESS:      22787 HIT:       6922 MISS:      15865
cpu0_L2C PREFETCH REQUESTED:          0 ISSUED:          0 USEFUL:          0 USELESS:          0
cpu0_L2C AVERAGE MISS LATENCY: 406.6 cycles
cpu0_STLB TOTAL        ACCESS:     508919 HIT:     486130 MISS:      22789
cpu0_STLB LOAD         ACCESS:     508919 HIT:     486130 MISS:      22789
cpu0_STLB RFO          ACCESS:          0 HIT:          0 MISS:          0
cpu0_STLB PREFETCH     ACCESS:          0 HIT:          0 MISS:          0
cpu0_STLB WRITE        ACCESS:          0 HIT:          0 MISS:          0
cpu0_STLB TRANSLATION  ACCESS:          0 HIT:          0 MISS:          0
cpu0_STLB PREFETCH REQUESTED:          0 ISSUED:          0 USEFUL:          0 USELESS:          0
cpu0_STLB AVERAGE MISS LATENCY: 437.3 cycles

DRAM Statistics

Channel 0 RQ ROW_BUFFER_HIT:      37488
  ROW_BUFFER_MISS:     190466
 AVG DBUS CONGESTED CYCLE: 3.854
WQ ROW_BUFFER_HIT: Channel 0 
  ROW_BUFFER_MISS:       5767
  FULL:      32242
