WARNING: physical memory size is smaller than virtual memory size.

*** ChampSim Multicore Out-of-Order Simulator ***
Warmup Instructions: 50000000
Simulation Instructions: 600000000
Number of CPUs: 1
Page size: 4096

Initialize SIGNATURE TABLE
ST_SET: 1
ST_WAY: 256
ST_TAG_BIT: 16
ST_TAG_MASK: ffff

Initialize PATTERN TABLE
PT_SET: 512
PT_WAY: 4
SIG_DELTA_BIT: 7
C_SIG_BIT: 4
C_DELTA_BIT: 4

Initialize PREFETCH FILTER
FILTER_SET: 1024
Off-chip DRAM Size: 4 GiB Channels: 1 Width: 64-bit Data Race: 3200 MT/s
Heartbeat CPU 0 instructions: 10000000 cycles: 2500061 heartbeat IPC: 4 cumulative IPC: 4 (Simulation time: 00 hr 03 min 26 sec)
Heartbeat CPU 0 instructions: 20000000 cycles: 5000061 heartbeat IPC: 4 cumulative IPC: 4 (Simulation time: 00 hr 06 min 51 sec)
Heartbeat CPU 0 instructions: 30000000 cycles: 7500061 heartbeat IPC: 4 cumulative IPC: 4 (Simulation time: 00 hr 10 min 13 sec)
Heartbeat CPU 0 instructions: 40000000 cycles: 10000061 heartbeat IPC: 4 cumulative IPC: 4 (Simulation time: 00 hr 13 min 37 sec)
Heartbeat CPU 0 instructions: 50000000 cycles: 12500061 heartbeat IPC: 4 cumulative IPC: 4 (Simulation time: 00 hr 17 min 06 sec)
Warmup finished CPU 0 instructions: 50000000 cycles: 12500062 cumulative IPC: 4 (Simulation time: 00 hr 17 min 06 sec)
Warmup complete CPU 0 instructions: 50000000 cycles: 12500062 cumulative IPC: 4 (Simulation time: 00 hr 17 min 06 sec)
Heartbeat CPU 0 instructions: 60000002 cycles: 16913136 heartbeat IPC: 2.266 cumulative IPC: 2.266 (Simulation time: 00 hr 22 min 08 sec)
Heartbeat CPU 0 instructions: 70000003 cycles: 21900385 heartbeat IPC: 2.005 cumulative IPC: 2.128 (Simulation time: 00 hr 27 min 21 sec)
Heartbeat CPU 0 instructions: 80000001 cycles: 27257275 heartbeat IPC: 1.867 cumulative IPC: 2.033 (Simulation time: 00 hr 32 min 46 sec)
Heartbeat CPU 0 instructions: 90000000 cycles: 31561570 heartbeat IPC: 2.323 cumulative IPC: 2.098 (Simulation time: 00 hr 37 min 38 sec)
Heartbeat CPU 0 instructions: 100000003 cycles: 36426791 heartbeat IPC: 2.055 cumulative IPC: 2.09 (Simulation time: 00 hr 42 min 49 sec)
Heartbeat CPU 0 instructions: 110000002 cycles: 41303248 heartbeat IPC: 2.051 cumulative IPC: 2.083 (Simulation time: 00 hr 48 min 09 sec)
Heartbeat CPU 0 instructions: 120000001 cycles: 46303885 heartbeat IPC: 2 cumulative IPC: 2.071 (Simulation time: 00 hr 53 min 23 sec)
Heartbeat CPU 0 instructions: 130000003 cycles: 50878902 heartbeat IPC: 2.186 cumulative IPC: 2.084 (Simulation time: 00 hr 58 min 25 sec)
Heartbeat CPU 0 instructions: 140000002 cycles: 55773152 heartbeat IPC: 2.043 cumulative IPC: 2.08 (Simulation time: 01 hr 03 min 36 sec)
Heartbeat CPU 0 instructions: 150000001 cycles: 60445632 heartbeat IPC: 2.14 cumulative IPC: 2.086 (Simulation time: 01 hr 08 min 37 sec)
Heartbeat CPU 0 instructions: 160000000 cycles: 65087806 heartbeat IPC: 2.154 cumulative IPC: 2.092 (Simulation time: 01 hr 13 min 43 sec)
Heartbeat CPU 0 instructions: 170000000 cycles: 70425162 heartbeat IPC: 1.874 cumulative IPC: 2.072 (Simulation time: 01 hr 19 min 13 sec)
Heartbeat CPU 0 instructions: 180000001 cycles: 76150752 heartbeat IPC: 1.747 cumulative IPC: 2.042 (Simulation time: 01 hr 24 min 57 sec)
Heartbeat CPU 0 instructions: 190000002 cycles: 80627377 heartbeat IPC: 2.234 cumulative IPC: 2.055 (Simulation time: 01 hr 29 min 57 sec)
Heartbeat CPU 0 instructions: 200000002 cycles: 85534375 heartbeat IPC: 2.038 cumulative IPC: 2.054 (Simulation time: 01 hr 35 min 10 sec)
Heartbeat CPU 0 instructions: 210000000 cycles: 90540329 heartbeat IPC: 1.998 cumulative IPC: 2.05 (Simulation time: 01 hr 40 min 24 sec)
Heartbeat CPU 0 instructions: 220000001 cycles: 95468905 heartbeat IPC: 2.029 cumulative IPC: 2.049 (Simulation time: 01 hr 45 min 34 sec)
Heartbeat CPU 0 instructions: 230000002 cycles: 100720405 heartbeat IPC: 1.904 cumulative IPC: 2.04 (Simulation time: 01 hr 50 min 58 sec)
Heartbeat CPU 0 instructions: 240000001 cycles: 105688676 heartbeat IPC: 2.013 cumulative IPC: 2.039 (Simulation time: 01 hr 56 min 11 sec)
Heartbeat CPU 0 instructions: 250000003 cycles: 110890025 heartbeat IPC: 1.923 cumulative IPC: 2.033 (Simulation time: 02 hr 01 min 31 sec)
Heartbeat CPU 0 instructions: 260000001 cycles: 115755759 heartbeat IPC: 2.055 cumulative IPC: 2.034 (Simulation time: 02 hr 06 min 42 sec)
Heartbeat CPU 0 instructions: 270000000 cycles: 123516225 heartbeat IPC: 1.289 cumulative IPC: 1.982 (Simulation time: 02 hr 14 min 01 sec)
Heartbeat CPU 0 instructions: 280000000 cycles: 136295878 heartbeat IPC: 0.7825 cumulative IPC: 1.858 (Simulation time: 02 hr 24 min 31 sec)
Heartbeat CPU 0 instructions: 290000001 cycles: 148592574 heartbeat IPC: 0.8132 cumulative IPC: 1.764 (Simulation time: 02 hr 34 min 50 sec)
Heartbeat CPU 0 instructions: 300000003 cycles: 156631261 heartbeat IPC: 1.244 cumulative IPC: 1.735 (Simulation time: 02 hr 42 min 42 sec)
Heartbeat CPU 0 instructions: 310000004 cycles: 169159196 heartbeat IPC: 0.7982 cumulative IPC: 1.66 (Simulation time: 02 hr 53 min 17 sec)
Heartbeat CPU 0 instructions: 320000004 cycles: 175190553 heartbeat IPC: 1.658 cumulative IPC: 1.66 (Simulation time: 02 hr 59 min 34 sec)
Heartbeat CPU 0 instructions: 330000000 cycles: 180489202 heartbeat IPC: 1.887 cumulative IPC: 1.667 (Simulation time: 03 hr 05 min 11 sec)
Heartbeat CPU 0 instructions: 340000001 cycles: 185480784 heartbeat IPC: 2.003 cumulative IPC: 1.676 (Simulation time: 03 hr 10 min 36 sec)
Heartbeat CPU 0 instructions: 350000000 cycles: 190450989 heartbeat IPC: 2.012 cumulative IPC: 1.686 (Simulation time: 03 hr 16 min 06 sec)
Heartbeat CPU 0 instructions: 360000003 cycles: 195157355 heartbeat IPC: 2.125 cumulative IPC: 1.697 (Simulation time: 03 hr 21 min 31 sec)
Heartbeat CPU 0 instructions: 370000001 cycles: 199836866 heartbeat IPC: 2.137 cumulative IPC: 1.708 (Simulation time: 03 hr 26 min 39 sec)
Heartbeat CPU 0 instructions: 380000004 cycles: 204815917 heartbeat IPC: 2.008 cumulative IPC: 1.716 (Simulation time: 03 hr 32 min 02 sec)
Heartbeat CPU 0 instructions: 390000002 cycles: 209871689 heartbeat IPC: 1.978 cumulative IPC: 1.723 (Simulation time: 03 hr 37 min 28 sec)
Heartbeat CPU 0 instructions: 400000000 cycles: 214904746 heartbeat IPC: 1.987 cumulative IPC: 1.729 (Simulation time: 03 hr 42 min 52 sec)
Heartbeat CPU 0 instructions: 410000000 cycles: 222617071 heartbeat IPC: 1.297 cumulative IPC: 1.713 (Simulation time: 03 hr 50 min 17 sec)
Heartbeat CPU 0 instructions: 420000001 cycles: 235116558 heartbeat IPC: 0.8 cumulative IPC: 1.662 (Simulation time: 04 hr 00 min 47 sec)
Heartbeat CPU 0 instructions: 430000000 cycles: 243268566 heartbeat IPC: 1.227 cumulative IPC: 1.647 (Simulation time: 04 hr 08 min 37 sec)
Heartbeat CPU 0 instructions: 440000002 cycles: 252174252 heartbeat IPC: 1.123 cumulative IPC: 1.627 (Simulation time: 04 hr 16 min 47 sec)
Heartbeat CPU 0 instructions: 450000000 cycles: 260195899 heartbeat IPC: 1.247 cumulative IPC: 1.615 (Simulation time: 04 hr 24 min 27 sec)
Heartbeat CPU 0 instructions: 460000002 cycles: 274817553 heartbeat IPC: 0.6839 cumulative IPC: 1.563 (Simulation time: 04 hr 36 min 15 sec)
Heartbeat CPU 0 instructions: 470000000 cycles: 286334320 heartbeat IPC: 0.8683 cumulative IPC: 1.534 (Simulation time: 04 hr 45 min 58 sec)
Heartbeat CPU 0 instructions: 480000000 cycles: 291900879 heartbeat IPC: 1.796 cumulative IPC: 1.539 (Simulation time: 04 hr 51 min 40 sec)
Heartbeat CPU 0 instructions: 490000001 cycles: 296862766 heartbeat IPC: 2.015 cumulative IPC: 1.547 (Simulation time: 04 hr 56 min 58 sec)
Heartbeat CPU 0 instructions: 500000002 cycles: 301821714 heartbeat IPC: 2.017 cumulative IPC: 1.555 (Simulation time: 05 hr 02 min 30 sec)
Heartbeat CPU 0 instructions: 510000000 cycles: 306737643 heartbeat IPC: 2.034 cumulative IPC: 1.563 (Simulation time: 05 hr 07 min 49 sec)
Heartbeat CPU 0 instructions: 520000000 cycles: 311743247 heartbeat IPC: 1.998 cumulative IPC: 1.571 (Simulation time: 05 hr 13 min 12 sec)
Heartbeat CPU 0 instructions: 530000001 cycles: 323383148 heartbeat IPC: 0.8591 cumulative IPC: 1.544 (Simulation time: 05 hr 22 min 52 sec)
Heartbeat CPU 0 instructions: 540000000 cycles: 336610864 heartbeat IPC: 0.756 cumulative IPC: 1.512 (Simulation time: 05 hr 33 min 50 sec)
Heartbeat CPU 0 instructions: 550000002 cycles: 352306844 heartbeat IPC: 0.6371 cumulative IPC: 1.471 (Simulation time: 05 hr 46 min 16 sec)
Heartbeat CPU 0 instructions: 560000004 cycles: 357591750 heartbeat IPC: 1.892 cumulative IPC: 1.478 (Simulation time: 05 hr 51 min 47 sec)
Heartbeat CPU 0 instructions: 570000001 cycles: 362014702 heartbeat IPC: 2.261 cumulative IPC: 1.488 (Simulation time: 05 hr 56 min 49 sec)
Heartbeat CPU 0 instructions: 580000003 cycles: 366262600 heartbeat IPC: 2.354 cumulative IPC: 1.498 (Simulation time: 06 hr 01 min 45 sec)
Heartbeat CPU 0 instructions: 590000001 cycles: 371175575 heartbeat IPC: 2.035 cumulative IPC: 1.506 (Simulation time: 06 hr 06 min 59 sec)
Heartbeat CPU 0 instructions: 600000003 cycles: 375821803 heartbeat IPC: 2.152 cumulative IPC: 1.514 (Simulation time: 06 hr 12 min 10 sec)
Heartbeat CPU 0 instructions: 610000001 cycles: 380689431 heartbeat IPC: 2.054 cumulative IPC: 1.521 (Simulation time: 06 hr 17 min 36 sec)
Heartbeat CPU 0 instructions: 620000000 cycles: 385757851 heartbeat IPC: 1.973 cumulative IPC: 1.527 (Simulation time: 06 hr 23 min 00 sec)
Heartbeat CPU 0 instructions: 630000002 cycles: 390008025 heartbeat IPC: 2.353 cumulative IPC: 1.536 (Simulation time: 06 hr 27 min 56 sec)
Heartbeat CPU 0 instructions: 640000004 cycles: 395316984 heartbeat IPC: 1.884 cumulative IPC: 1.541 (Simulation time: 06 hr 33 min 23 sec)
Heartbeat CPU 0 instructions: 650000001 cycles: 400072994 heartbeat IPC: 2.103 cumulative IPC: 1.548 (Simulation time: 06 hr 38 min 36 sec)
Simulation finished CPU 0 instructions: 600000001 cycles: 387572933 cumulative IPC: 1.548 (Simulation time: 06 hr 38 min 36 sec)
Simulation complete CPU 0 instructions: 600000001 cycles: 387572933 cumulative IPC: 1.548 (Simulation time: 06 hr 38 min 36 sec)

ChampSim completed all CPUs

=== Simulation ===
CPU 0 runs traces/400.perlbench-50B.champsimtrace.xz
Region of Interest Statistics

CPU 0 cumulative IPC: 1.548 instructions: 600000001 cycles: 387572933
CPU 0 Branch Prediction Accuracy: 93.83% MPKI: 12.71 Average ROB Occupancy at Mispredict: 29.52
Branch type MPKI
BRANCH_DIRECT_JUMP: 0.0176
BRANCH_INDIRECT: 0.38
BRANCH_CONDITIONAL: 11.9
BRANCH_DIRECT_CALL: 0.0067
BRANCH_INDIRECT_CALL: 0.431
BRANCH_RETURN: 0.0161

LLC TOTAL        ACCESS:     879319 HIT:     215785 MISS:     663534
LLC LOAD         ACCESS:     376737 HIT:      97307 MISS:     279430
LLC RFO          ACCESS:      32682 HIT:       7573 MISS:      25109
LLC PREFETCH     ACCESS:     367479 HIT:      85182 MISS:     282297
LLC WRITE        ACCESS:      84270 HIT:      24256 MISS:      60014
LLC TRANSLATION  ACCESS:      18151 HIT:       1467 MISS:      16684
LLC PREFETCH REQUESTED:     367479 ISSUED:     367479 USEFUL:       2529 USELESS:        284
LLC AVERAGE MISS LATENCY: 288.9 cycles
cpu0_DTLB TOTAL        ACCESS:  156725371 HIT:  155423462 MISS:    1301909
cpu0_DTLB LOAD         ACCESS:  156725371 HIT:  155423462 MISS:    1301909
cpu0_DTLB RFO          ACCESS:          0 HIT:          0 MISS:          0
cpu0_DTLB PREFETCH     ACCESS:          0 HIT:          0 MISS:          0
cpu0_DTLB WRITE        ACCESS:          0 HIT:          0 MISS:          0
cpu0_DTLB TRANSLATION  ACCESS:          0 HIT:          0 MISS:          0
cpu0_DTLB PREFETCH REQUESTED:          0 ISSUED:          0 USEFUL:          0 USELESS:          0
cpu0_DTLB AVERAGE MISS LATENCY: 15.21 cycles
cpu0_ITLB TOTAL        ACCESS:    8933433 HIT:    8734596 MISS:     198837
cpu0_ITLB LOAD         ACCESS:    8933433 HIT:    8734596 MISS:     198837
cpu0_ITLB RFO          ACCESS:          0 HIT:          0 MISS:          0
cpu0_ITLB PREFETCH     ACCESS:          0 HIT:          0 MISS:          0
cpu0_ITLB WRITE        ACCESS:          0 HIT:          0 MISS:          0
cpu0_ITLB TRANSLATION  ACCESS:          0 HIT:          0 MISS:          0
cpu0_ITLB PREFETCH REQUESTED:          0 ISSUED:          0 USEFUL:          0 USELESS:          0
cpu0_ITLB AVERAGE MISS LATENCY: 3.756 cycles
cpu0_L1D TOTAL        ACCESS:  203592949 HIT:  200738799 MISS:    2854150
cpu0_L1D LOAD         ACCESS:  117916883 HIT:  115573655 MISS:    2343228
cpu0_L1D RFO          ACCESS:          0 HIT:          0 MISS:          0
cpu0_L1D PREFETCH     ACCESS:          0 HIT:          0 MISS:          0
cpu0_L1D WRITE        ACCESS:   85647529 HIT:   85163155 MISS:     484374
cpu0_L1D TRANSLATION  ACCESS:      28537 HIT:       1989 MISS:      26548
cpu0_L1D PREFETCH REQUESTED:          0 ISSUED:          0 USEFUL:          0 USELESS:          0
cpu0_L1D AVERAGE MISS LATENCY: 67.7 cycles
cpu0_L1I TOTAL        ACCESS:   10372087 HIT:    8572983 MISS:    1799104
cpu0_L1I LOAD         ACCESS:   10372087 HIT:    8572983 MISS:    1799104
cpu0_L1I RFO          ACCESS:          0 HIT:          0 MISS:          0
cpu0_L1I PREFETCH     ACCESS:          0 HIT:          0 MISS:          0
cpu0_L1I WRITE        ACCESS:          0 HIT:          0 MISS:          0
cpu0_L1I TRANSLATION  ACCESS:          0 HIT:          0 MISS:          0
cpu0_L1I PREFETCH REQUESTED:          0 ISSUED:          0 USEFUL:          0 USELESS:          0
cpu0_L1I AVERAGE MISS LATENCY: 14.86 cycles
cpu0_L2C TOTAL        ACCESS:    3235414 HIT:    2806910 MISS:     428504
cpu0_L2C LOAD         ACCESS:    2711768 HIT:    2335031 MISS:     376737
cpu0_L2C RFO          ACCESS:     133702 HIT:     101020 MISS:      32682
cpu0_L2C PREFETCH     ACCESS:          0 HIT:          0 MISS:          0
cpu0_L2C WRITE        ACCESS:     363480 HIT:     362546 MISS:        934
cpu0_L2C TRANSLATION  ACCESS:      26464 HIT:       8313 MISS:      18151
cpu0_L2C PREFETCH REQUESTED:          0 ISSUED:          0 USEFUL:          0 USELESS:          0
cpu0_L2C AVERAGE MISS LATENCY: 463.3 cycles
cpu0_STLB TOTAL        ACCESS:    1009332 HIT:     982642 MISS:      26690
cpu0_STLB LOAD         ACCESS:    1009332 HIT:     982642 MISS:      26690
cpu0_STLB RFO          ACCESS:          0 HIT:          0 MISS:          0
cpu0_STLB PREFETCH     ACCESS:          0 HIT:          0 MISS:          0
cpu0_STLB WRITE        ACCESS:          0 HIT:          0 MISS:          0
cpu0_STLB TRANSLATION  ACCESS:          0 HIT:          0 MISS:          0
cpu0_STLB PREFETCH REQUESTED:          0 ISSUED:          0 USEFUL:          0 USELESS:          0
cpu0_STLB AVERAGE MISS LATENCY: 531.7 cycles

DRAM Statistics

Channel 0 RQ ROW_BUFFER_HIT:      76623
  ROW_BUFFER_MISS:     370913
 AVG DBUS CONGESTED CYCLE: 3.87
WQ ROW_BUFFER_HIT: Channel 0 
  ROW_BUFFER_MISS:       7923
  FULL:      53908
