WARNING: physical memory size is smaller than virtual memory size.

*** ChampSim Multicore Out-of-Order Simulator ***
Warmup Instructions: 50000000
Simulation Instructions: 600000000
Number of CPUs: 1
Page size: 4096

Off-chip DRAM Size: 4 GiB Channels: 1 Width: 64-bit Data Race: 3200 MT/s
Heartbeat CPU 0 instructions: 10000000 cycles: 2500062 heartbeat IPC: 4 cumulative IPC: 4 (Simulation time: 00 hr 01 min 27 sec)
Heartbeat CPU 0 instructions: 20000000 cycles: 5000062 heartbeat IPC: 4 cumulative IPC: 4 (Simulation time: 00 hr 03 min 38 sec)
Heartbeat CPU 0 instructions: 30000000 cycles: 7500062 heartbeat IPC: 4 cumulative IPC: 4 (Simulation time: 00 hr 06 min 52 sec)
Heartbeat CPU 0 instructions: 40000000 cycles: 10000062 heartbeat IPC: 4 cumulative IPC: 4 (Simulation time: 00 hr 10 min 19 sec)
Heartbeat CPU 0 instructions: 50000000 cycles: 12500062 heartbeat IPC: 4 cumulative IPC: 4 (Simulation time: 00 hr 13 min 48 sec)
Warmup finished CPU 0 instructions: 50000000 cycles: 12500063 cumulative IPC: 4 (Simulation time: 00 hr 13 min 48 sec)
Warmup complete CPU 0 instructions: 50000000 cycles: 12500063 cumulative IPC: 4 (Simulation time: 00 hr 13 min 48 sec)
Heartbeat CPU 0 instructions: 60000002 cycles: 16266337 heartbeat IPC: 2.655 cumulative IPC: 2.655 (Simulation time: 00 hr 18 min 30 sec)
Heartbeat CPU 0 instructions: 70000003 cycles: 20451944 heartbeat IPC: 2.389 cumulative IPC: 2.515 (Simulation time: 00 hr 23 min 20 sec)
Heartbeat CPU 0 instructions: 80000003 cycles: 24692684 heartbeat IPC: 2.358 cumulative IPC: 2.461 (Simulation time: 00 hr 28 min 14 sec)
Heartbeat CPU 0 instructions: 90000000 cycles: 27949197 heartbeat IPC: 3.071 cumulative IPC: 2.589 (Simulation time: 00 hr 32 min 35 sec)
Heartbeat CPU 0 instructions: 100000003 cycles: 31984999 heartbeat IPC: 2.478 cumulative IPC: 2.566 (Simulation time: 00 hr 37 min 22 sec)
Heartbeat CPU 0 instructions: 110000002 cycles: 35972446 heartbeat IPC: 2.508 cumulative IPC: 2.556 (Simulation time: 00 hr 42 min 03 sec)
Heartbeat CPU 0 instructions: 120000001 cycles: 39542703 heartbeat IPC: 2.801 cumulative IPC: 2.589 (Simulation time: 00 hr 46 min 38 sec)
Heartbeat CPU 0 instructions: 130000003 cycles: 43232287 heartbeat IPC: 2.71 cumulative IPC: 2.603 (Simulation time: 00 hr 51 min 14 sec)
Heartbeat CPU 0 instructions: 140000002 cycles: 47194657 heartbeat IPC: 2.524 cumulative IPC: 2.594 (Simulation time: 00 hr 56 min 08 sec)
Heartbeat CPU 0 instructions: 150000001 cycles: 51105250 heartbeat IPC: 2.557 cumulative IPC: 2.59 (Simulation time: 01 hr 00 min 51 sec)
Heartbeat CPU 0 instructions: 160000000 cycles: 54762302 heartbeat IPC: 2.734 cumulative IPC: 2.603 (Simulation time: 01 hr 05 min 23 sec)
Heartbeat CPU 0 instructions: 170000001 cycles: 58743592 heartbeat IPC: 2.512 cumulative IPC: 2.595 (Simulation time: 01 hr 10 min 07 sec)
Heartbeat CPU 0 instructions: 180000001 cycles: 62183708 heartbeat IPC: 2.907 cumulative IPC: 2.617 (Simulation time: 01 hr 14 min 38 sec)
Heartbeat CPU 0 instructions: 190000002 cycles: 65664252 heartbeat IPC: 2.873 cumulative IPC: 2.633 (Simulation time: 01 hr 19 min 16 sec)
Heartbeat CPU 0 instructions: 200000002 cycles: 69430317 heartbeat IPC: 2.655 cumulative IPC: 2.635 (Simulation time: 01 hr 23 min 59 sec)
Heartbeat CPU 0 instructions: 210000000 cycles: 72988523 heartbeat IPC: 2.81 cumulative IPC: 2.645 (Simulation time: 01 hr 28 min 33 sec)
Heartbeat CPU 0 instructions: 220000001 cycles: 76709793 heartbeat IPC: 2.687 cumulative IPC: 2.648 (Simulation time: 01 hr 33 min 10 sec)
Heartbeat CPU 0 instructions: 230000002 cycles: 80439202 heartbeat IPC: 2.681 cumulative IPC: 2.649 (Simulation time: 01 hr 37 min 47 sec)
Heartbeat CPU 0 instructions: 240000004 cycles: 84438621 heartbeat IPC: 2.5 cumulative IPC: 2.641 (Simulation time: 01 hr 42 min 39 sec)
Heartbeat CPU 0 instructions: 250000003 cycles: 88801928 heartbeat IPC: 2.292 cumulative IPC: 2.621 (Simulation time: 01 hr 47 min 35 sec)
Heartbeat CPU 0 instructions: 260000001 cycles: 92469449 heartbeat IPC: 2.727 cumulative IPC: 2.626 (Simulation time: 01 hr 52 min 10 sec)
Heartbeat CPU 0 instructions: 270000003 cycles: 99915674 heartbeat IPC: 1.343 cumulative IPC: 2.517 (Simulation time: 01 hr 59 min 09 sec)
Heartbeat CPU 0 instructions: 280000000 cycles: 111720551 heartbeat IPC: 0.8471 cumulative IPC: 2.318 (Simulation time: 02 hr 09 min 12 sec)
Heartbeat CPU 0 instructions: 290000000 cycles: 122117804 heartbeat IPC: 0.9618 cumulative IPC: 2.189 (Simulation time: 02 hr 18 min 23 sec)
Heartbeat CPU 0 instructions: 300000000 cycles: 130147426 heartbeat IPC: 1.245 cumulative IPC: 2.125 (Simulation time: 02 hr 26 min 05 sec)
Heartbeat CPU 0 instructions: 310000004 cycles: 142030681 heartbeat IPC: 0.8415 cumulative IPC: 2.007 (Simulation time: 02 hr 36 min 20 sec)
Heartbeat CPU 0 instructions: 320000004 cycles: 147464168 heartbeat IPC: 1.84 cumulative IPC: 2.001 (Simulation time: 02 hr 42 min 17 sec)
Heartbeat CPU 0 instructions: 330000000 cycles: 151496203 heartbeat IPC: 2.48 cumulative IPC: 2.014 (Simulation time: 02 hr 47 min 10 sec)
Heartbeat CPU 0 instructions: 340000001 cycles: 155862779 heartbeat IPC: 2.29 cumulative IPC: 2.023 (Simulation time: 02 hr 52 min 16 sec)
Heartbeat CPU 0 instructions: 350000004 cycles: 160376975 heartbeat IPC: 2.215 cumulative IPC: 2.029 (Simulation time: 02 hr 57 min 29 sec)
Heartbeat CPU 0 instructions: 360000003 cycles: 164610561 heartbeat IPC: 2.362 cumulative IPC: 2.038 (Simulation time: 03 hr 02 min 31 sec)
Heartbeat CPU 0 instructions: 370000001 cycles: 168725237 heartbeat IPC: 2.43 cumulative IPC: 2.048 (Simulation time: 03 hr 07 min 29 sec)
Heartbeat CPU 0 instructions: 380000004 cycles: 172712981 heartbeat IPC: 2.508 cumulative IPC: 2.06 (Simulation time: 03 hr 12 min 24 sec)
Heartbeat CPU 0 instructions: 390000002 cycles: 176943445 heartbeat IPC: 2.364 cumulative IPC: 2.068 (Simulation time: 03 hr 17 min 29 sec)
Heartbeat CPU 0 instructions: 400000000 cycles: 181443391 heartbeat IPC: 2.222 cumulative IPC: 2.072 (Simulation time: 03 hr 22 min 39 sec)
Heartbeat CPU 0 instructions: 410000000 cycles: 189651265 heartbeat IPC: 1.218 cumulative IPC: 2.032 (Simulation time: 03 hr 30 min 14 sec)
Heartbeat CPU 0 instructions: 420000001 cycles: 201642969 heartbeat IPC: 0.8339 cumulative IPC: 1.956 (Simulation time: 03 hr 40 min 16 sec)
Heartbeat CPU 0 instructions: 430000002 cycles: 210079400 heartbeat IPC: 1.185 cumulative IPC: 1.923 (Simulation time: 03 hr 48 min 35 sec)
Heartbeat CPU 0 instructions: 440000002 cycles: 217461552 heartbeat IPC: 1.355 cumulative IPC: 1.903 (Simulation time: 03 hr 55 min 51 sec)
Heartbeat CPU 0 instructions: 450000000 cycles: 224829532 heartbeat IPC: 1.357 cumulative IPC: 1.884 (Simulation time: 04 hr 03 min 03 sec)
Heartbeat CPU 0 instructions: 460000002 cycles: 236707230 heartbeat IPC: 0.8419 cumulative IPC: 1.829 (Simulation time: 04 hr 13 min 09 sec)
Heartbeat CPU 0 instructions: 470000003 cycles: 247095169 heartbeat IPC: 0.9627 cumulative IPC: 1.79 (Simulation time: 04 hr 22 min 18 sec)
Heartbeat CPU 0 instructions: 480000003 cycles: 251496065 heartbeat IPC: 2.272 cumulative IPC: 1.799 (Simulation time: 04 hr 27 min 34 sec)
Heartbeat CPU 0 instructions: 490000001 cycles: 256403720 heartbeat IPC: 2.038 cumulative IPC: 1.804 (Simulation time: 04 hr 33 min 01 sec)
Heartbeat CPU 0 instructions: 500000002 cycles: 261029917 heartbeat IPC: 2.162 cumulative IPC: 1.811 (Simulation time: 04 hr 38 min 18 sec)
Heartbeat CPU 0 instructions: 510000000 cycles: 265613986 heartbeat IPC: 2.181 cumulative IPC: 1.817 (Simulation time: 04 hr 43 min 35 sec)
Heartbeat CPU 0 instructions: 520000000 cycles: 270296064 heartbeat IPC: 2.136 cumulative IPC: 1.823 (Simulation time: 04 hr 48 min 57 sec)
Heartbeat CPU 0 instructions: 530000001 cycles: 282951941 heartbeat IPC: 0.7901 cumulative IPC: 1.775 (Simulation time: 04 hr 59 min 21 sec)
Heartbeat CPU 0 instructions: 540000000 cycles: 295319939 heartbeat IPC: 0.8085 cumulative IPC: 1.733 (Simulation time: 05 hr 09 min 50 sec)
Heartbeat CPU 0 instructions: 550000002 cycles: 308382827 heartbeat IPC: 0.7655 cumulative IPC: 1.69 (Simulation time: 05 hr 20 min 42 sec)
Heartbeat CPU 0 instructions: 560000004 cycles: 312810589 heartbeat IPC: 2.258 cumulative IPC: 1.698 (Simulation time: 05 hr 26 min 02 sec)
Heartbeat CPU 0 instructions: 570000001 cycles: 315950635 heartbeat IPC: 3.185 cumulative IPC: 1.714 (Simulation time: 05 hr 30 min 29 sec)
Heartbeat CPU 0 instructions: 580000003 cycles: 319452048 heartbeat IPC: 2.856 cumulative IPC: 1.727 (Simulation time: 05 hr 35 min 00 sec)
Heartbeat CPU 0 instructions: 590000001 cycles: 323022449 heartbeat IPC: 2.801 cumulative IPC: 1.739 (Simulation time: 05 hr 39 min 47 sec)
Heartbeat CPU 0 instructions: 600000003 cycles: 326006579 heartbeat IPC: 3.351 cumulative IPC: 1.754 (Simulation time: 05 hr 44 min 10 sec)
Heartbeat CPU 0 instructions: 610000001 cycles: 329511618 heartbeat IPC: 2.853 cumulative IPC: 1.766 (Simulation time: 05 hr 48 min 56 sec)
Heartbeat CPU 0 instructions: 620000000 cycles: 333053569 heartbeat IPC: 2.823 cumulative IPC: 1.778 (Simulation time: 05 hr 53 min 36 sec)
Heartbeat CPU 0 instructions: 630000002 cycles: 336248346 heartbeat IPC: 3.13 cumulative IPC: 1.792 (Simulation time: 05 hr 58 min 02 sec)
Heartbeat CPU 0 instructions: 640000004 cycles: 339995532 heartbeat IPC: 2.669 cumulative IPC: 1.802 (Simulation time: 06 hr 02 min 59 sec)
Heartbeat CPU 0 instructions: 650000001 cycles: 343397546 heartbeat IPC: 2.939 cumulative IPC: 1.813 (Simulation time: 06 hr 07 min 35 sec)
Simulation finished CPU 0 instructions: 600000001 cycles: 330897484 cumulative IPC: 1.813 (Simulation time: 06 hr 07 min 35 sec)
Simulation complete CPU 0 instructions: 600000001 cycles: 330897484 cumulative IPC: 1.813 (Simulation time: 06 hr 07 min 35 sec)

ChampSim completed all CPUs

=== Simulation ===
CPU 0 runs traces/400.perlbench-50B.champsimtrace.xz
Region of Interest Statistics

CPU 0 cumulative IPC: 1.813 instructions: 600000001 cycles: 330897484
CPU 0 Branch Prediction Accuracy: 96.09% MPKI: 8.064 Average ROB Occupancy at Mispredict: 40.33
Branch type MPKI
BRANCH_DIRECT_JUMP: 0.0176
BRANCH_INDIRECT: 0.38
BRANCH_CONDITIONAL: 7.21
BRANCH_DIRECT_CALL: 0.0067
BRANCH_INDIRECT_CALL: 0.431
BRANCH_RETURN: 0.0161

LLC TOTAL        ACCESS:     840424 HIT:     321898 MISS:     518526
LLC LOAD         ACCESS:     379065 HIT:     171206 MISS:     207859
LLC RFO          ACCESS:      32753 HIT:      11447 MISS:      21306
LLC PREFETCH     ACCESS:     326217 HIT:      52938 MISS:     273279
LLC WRITE        ACCESS:      84083 HIT:      81075 MISS:       3008
LLC TRANSLATION  ACCESS:      18306 HIT:       5232 MISS:      13074
LLC PREFETCH REQUESTED:     326587 ISSUED:     326217 USEFUL:      99744 USELESS:     151529
LLC AVERAGE MISS LATENCY: 693.9 cycles
cpu0_DTLB TOTAL        ACCESS:  146250130 HIT:  144957312 MISS:    1292818
cpu0_DTLB LOAD         ACCESS:  146250130 HIT:  144957312 MISS:    1292818
cpu0_DTLB RFO          ACCESS:          0 HIT:          0 MISS:          0
cpu0_DTLB PREFETCH     ACCESS:          0 HIT:          0 MISS:          0
cpu0_DTLB WRITE        ACCESS:          0 HIT:          0 MISS:          0
cpu0_DTLB TRANSLATION  ACCESS:          0 HIT:          0 MISS:          0
cpu0_DTLB PREFETCH REQUESTED:          0 ISSUED:          0 USEFUL:          0 USELESS:          0
cpu0_DTLB AVERAGE MISS LATENCY: 12.88 cycles
cpu0_ITLB TOTAL        ACCESS:    8991854 HIT:    8819262 MISS:     172592
cpu0_ITLB LOAD         ACCESS:    8991854 HIT:    8819262 MISS:     172592
cpu0_ITLB RFO          ACCESS:          0 HIT:          0 MISS:          0
cpu0_ITLB PREFETCH     ACCESS:          0 HIT:          0 MISS:          0
cpu0_ITLB WRITE        ACCESS:          0 HIT:          0 MISS:          0
cpu0_ITLB TRANSLATION  ACCESS:          0 HIT:          0 MISS:          0
cpu0_ITLB PREFETCH REQUESTED:          0 ISSUED:          0 USEFUL:          0 USELESS:          0
cpu0_ITLB AVERAGE MISS LATENCY: 4.457 cycles
cpu0_L1D TOTAL        ACCESS:  193011653 HIT:  190215508 MISS:    2796145
cpu0_L1D LOAD         ACCESS:  107193840 HIT:  104896608 MISS:    2297232
cpu0_L1D RFO          ACCESS:          0 HIT:          0 MISS:          0
cpu0_L1D PREFETCH     ACCESS:          0 HIT:          0 MISS:          0
cpu0_L1D WRITE        ACCESS:   85789282 HIT:   85316878 MISS:     472404
cpu0_L1D TRANSLATION  ACCESS:      28531 HIT:       2022 MISS:      26509
cpu0_L1D PREFETCH REQUESTED:          0 ISSUED:          0 USEFUL:          0 USELESS:          0
cpu0_L1D AVERAGE MISS LATENCY: 57.07 cycles
cpu0_L1I TOTAL        ACCESS:   10426151 HIT:    8710811 MISS:    1715340
cpu0_L1I LOAD         ACCESS:   10426151 HIT:    8710811 MISS:    1715340
cpu0_L1I RFO          ACCESS:          0 HIT:          0 MISS:          0
cpu0_L1I PREFETCH     ACCESS:          0 HIT:          0 MISS:          0
cpu0_L1I WRITE        ACCESS:          0 HIT:          0 MISS:          0
cpu0_L1I TRANSLATION  ACCESS:          0 HIT:          0 MISS:          0
cpu0_L1I PREFETCH REQUESTED:          0 ISSUED:          0 USEFUL:          0 USELESS:          0
cpu0_L1I AVERAGE MISS LATENCY: 12.84 cycles
cpu0_L2C TOTAL        ACCESS:    3232103 HIT:    2801075 MISS:     431028
cpu0_L2C LOAD         ACCESS:    2710481 HIT:    2331416 MISS:     379065
cpu0_L2C RFO          ACCESS:     132939 HIT:     100186 MISS:      32753
cpu0_L2C PREFETCH     ACCESS:          0 HIT:          0 MISS:          0
cpu0_L2C WRITE        ACCESS:     362229 HIT:     361325 MISS:        904
cpu0_L2C TRANSLATION  ACCESS:      26454 HIT:       8148 MISS:      18306
cpu0_L2C PREFETCH REQUESTED:          0 ISSUED:          0 USEFUL:          0 USELESS:          0
cpu0_L2C AVERAGE MISS LATENCY: 369.5 cycles
cpu0_STLB TOTAL        ACCESS:    1009365 HIT:     982668 MISS:      26697
cpu0_STLB LOAD         ACCESS:    1009365 HIT:     982668 MISS:      26697
cpu0_STLB RFO          ACCESS:          0 HIT:          0 MISS:          0
cpu0_STLB PREFETCH     ACCESS:          0 HIT:          0 MISS:          0
cpu0_STLB WRITE        ACCESS:          0 HIT:          0 MISS:          0
cpu0_STLB TRANSLATION  ACCESS:          0 HIT:          0 MISS:          0
cpu0_STLB PREFETCH REQUESTED:          0 ISSUED:          0 USEFUL:          0 USELESS:          0
cpu0_STLB AVERAGE MISS LATENCY: 404.4 cycles

DRAM Statistics

Channel 0 RQ ROW_BUFFER_HIT:     181242
  ROW_BUFFER_MISS:     321115
 AVG DBUS CONGESTED CYCLE: 3.905
WQ ROW_BUFFER_HIT: Channel 0 
  ROW_BUFFER_MISS:       6900
  FULL:      49424
