WARNING: physical memory size is smaller than virtual memory size.

*** ChampSim Multicore Out-of-Order Simulator ***
Warmup Instructions: 50000000
Simulation Instructions: 600000000
Number of CPUs: 1
Page size: 4096

Off-chip DRAM Size: 4 GiB Channels: 1 Width: 64-bit Data Race: 3200 MT/s
Heartbeat CPU 0 instructions: 10000001 cycles: 2500319 heartbeat IPC: 3.999 cumulative IPC: 3.999 (Simulation time: 00 hr 01 min 42 sec)
Heartbeat CPU 0 instructions: 20000002 cycles: 5037090 heartbeat IPC: 3.942 cumulative IPC: 3.971 (Simulation time: 00 hr 04 min 18 sec)
Heartbeat CPU 0 instructions: 30000002 cycles: 7537090 heartbeat IPC: 4 cumulative IPC: 3.98 (Simulation time: 00 hr 07 min 42 sec)
Heartbeat CPU 0 instructions: 40000002 cycles: 10037090 heartbeat IPC: 4 cumulative IPC: 3.985 (Simulation time: 00 hr 11 min 14 sec)
Heartbeat CPU 0 instructions: 50000002 cycles: 12537090 heartbeat IPC: 4 cumulative IPC: 3.988 (Simulation time: 00 hr 14 min 46 sec)
Warmup finished CPU 0 instructions: 50000002 cycles: 12537091 cumulative IPC: 3.988 (Simulation time: 00 hr 14 min 46 sec)
Warmup complete CPU 0 instructions: 50000002 cycles: 12537091 cumulative IPC: 3.988 (Simulation time: 00 hr 14 min 46 sec)
Heartbeat CPU 0 instructions: 60000000 cycles: 16995376 heartbeat IPC: 2.243 cumulative IPC: 2.243 (Simulation time: 00 hr 19 min 51 sec)
Heartbeat CPU 0 instructions: 70000002 cycles: 21161438 heartbeat IPC: 2.4 cumulative IPC: 2.319 (Simulation time: 00 hr 24 min 50 sec)
Heartbeat CPU 0 instructions: 80000001 cycles: 25680295 heartbeat IPC: 2.213 cumulative IPC: 2.283 (Simulation time: 00 hr 29 min 58 sec)
Heartbeat CPU 0 instructions: 90000003 cycles: 29658977 heartbeat IPC: 2.513 cumulative IPC: 2.336 (Simulation time: 00 hr 34 min 49 sec)
Heartbeat CPU 0 instructions: 100000000 cycles: 33800664 heartbeat IPC: 2.414 cumulative IPC: 2.351 (Simulation time: 00 hr 39 min 44 sec)
Heartbeat CPU 0 instructions: 110000000 cycles: 37939946 heartbeat IPC: 2.416 cumulative IPC: 2.362 (Simulation time: 00 hr 44 min 36 sec)
Heartbeat CPU 0 instructions: 120000001 cycles: 41911602 heartbeat IPC: 2.518 cumulative IPC: 2.383 (Simulation time: 00 hr 49 min 25 sec)
Heartbeat CPU 0 instructions: 130000001 cycles: 45657138 heartbeat IPC: 2.67 cumulative IPC: 2.415 (Simulation time: 00 hr 54 min 13 sec)
Heartbeat CPU 0 instructions: 140000001 cycles: 49823664 heartbeat IPC: 2.4 cumulative IPC: 2.414 (Simulation time: 00 hr 59 min 10 sec)
Heartbeat CPU 0 instructions: 150000001 cycles: 53979754 heartbeat IPC: 2.406 cumulative IPC: 2.413 (Simulation time: 01 hr 04 min 08 sec)
Heartbeat CPU 0 instructions: 160000004 cycles: 58228449 heartbeat IPC: 2.354 cumulative IPC: 2.407 (Simulation time: 01 hr 09 min 06 sec)
Heartbeat CPU 0 instructions: 170000001 cycles: 68903261 heartbeat IPC: 0.9368 cumulative IPC: 2.129 (Simulation time: 01 hr 18 min 17 sec)
Heartbeat CPU 0 instructions: 180000004 cycles: 80795664 heartbeat IPC: 0.8409 cumulative IPC: 1.905 (Simulation time: 01 hr 28 min 27 sec)
Heartbeat CPU 0 instructions: 190000001 cycles: 91979607 heartbeat IPC: 0.8941 cumulative IPC: 1.762 (Simulation time: 01 hr 38 min 08 sec)
Heartbeat CPU 0 instructions: 200000004 cycles: 95910077 heartbeat IPC: 2.544 cumulative IPC: 1.799 (Simulation time: 01 hr 42 min 57 sec)
Heartbeat CPU 0 instructions: 210000001 cycles: 99744549 heartbeat IPC: 2.608 cumulative IPC: 1.835 (Simulation time: 01 hr 47 min 49 sec)
Heartbeat CPU 0 instructions: 220000000 cycles: 103566353 heartbeat IPC: 2.617 cumulative IPC: 1.868 (Simulation time: 01 hr 52 min 32 sec)
Heartbeat CPU 0 instructions: 230000002 cycles: 108161818 heartbeat IPC: 2.176 cumulative IPC: 1.882 (Simulation time: 01 hr 57 min 42 sec)
Heartbeat CPU 0 instructions: 240000002 cycles: 112320760 heartbeat IPC: 2.404 cumulative IPC: 1.904 (Simulation time: 02 hr 02 min 41 sec)
Heartbeat CPU 0 instructions: 250000000 cycles: 116596044 heartbeat IPC: 2.339 cumulative IPC: 1.922 (Simulation time: 02 hr 07 min 40 sec)
Heartbeat CPU 0 instructions: 260000000 cycles: 120712945 heartbeat IPC: 2.429 cumulative IPC: 1.941 (Simulation time: 02 hr 12 min 40 sec)
Heartbeat CPU 0 instructions: 270000002 cycles: 124601649 heartbeat IPC: 2.572 cumulative IPC: 1.963 (Simulation time: 02 hr 17 min 30 sec)
Heartbeat CPU 0 instructions: 280000002 cycles: 128742939 heartbeat IPC: 2.415 cumulative IPC: 1.979 (Simulation time: 02 hr 22 min 26 sec)
Heartbeat CPU 0 instructions: 290000002 cycles: 132602406 heartbeat IPC: 2.591 cumulative IPC: 1.999 (Simulation time: 02 hr 27 min 15 sec)
Heartbeat CPU 0 instructions: 300000003 cycles: 136471942 heartbeat IPC: 2.584 cumulative IPC: 2.017 (Simulation time: 02 hr 32 min 07 sec)
Heartbeat CPU 0 instructions: 310000001 cycles: 140605683 heartbeat IPC: 2.419 cumulative IPC: 2.03 (Simulation time: 02 hr 37 min 02 sec)
Heartbeat CPU 0 instructions: 320000003 cycles: 144666557 heartbeat IPC: 2.463 cumulative IPC: 2.043 (Simulation time: 02 hr 41 min 57 sec)
Heartbeat CPU 0 instructions: 330000003 cycles: 149005175 heartbeat IPC: 2.305 cumulative IPC: 2.052 (Simulation time: 02 hr 47 min 00 sec)
Heartbeat CPU 0 instructions: 340000000 cycles: 160100030 heartbeat IPC: 0.9013 cumulative IPC: 1.965 (Simulation time: 02 hr 56 min 27 sec)
Heartbeat CPU 0 instructions: 350000000 cycles: 172291286 heartbeat IPC: 0.8203 cumulative IPC: 1.878 (Simulation time: 03 hr 06 min 47 sec)
Heartbeat CPU 0 instructions: 360000004 cycles: 183264114 heartbeat IPC: 0.9113 cumulative IPC: 1.816 (Simulation time: 03 hr 16 min 17 sec)
Heartbeat CPU 0 instructions: 370000001 cycles: 186750550 heartbeat IPC: 2.868 cumulative IPC: 1.837 (Simulation time: 03 hr 20 min 54 sec)
Heartbeat CPU 0 instructions: 380000001 cycles: 190173785 heartbeat IPC: 2.921 cumulative IPC: 1.858 (Simulation time: 03 hr 25 min 27 sec)
Heartbeat CPU 0 instructions: 390000004 cycles: 193755893 heartbeat IPC: 2.792 cumulative IPC: 1.876 (Simulation time: 03 hr 30 min 04 sec)
Heartbeat CPU 0 instructions: 400000004 cycles: 197304385 heartbeat IPC: 2.818 cumulative IPC: 1.894 (Simulation time: 03 hr 34 min 41 sec)
Heartbeat CPU 0 instructions: 410000001 cycles: 201078950 heartbeat IPC: 2.649 cumulative IPC: 1.909 (Simulation time: 03 hr 39 min 23 sec)
Heartbeat CPU 0 instructions: 420000002 cycles: 205294402 heartbeat IPC: 2.372 cumulative IPC: 1.92 (Simulation time: 03 hr 44 min 28 sec)
Heartbeat CPU 0 instructions: 430000001 cycles: 208901495 heartbeat IPC: 2.772 cumulative IPC: 1.935 (Simulation time: 03 hr 49 min 20 sec)
Heartbeat CPU 0 instructions: 440000004 cycles: 212859416 heartbeat IPC: 2.527 cumulative IPC: 1.947 (Simulation time: 03 hr 54 min 08 sec)
Heartbeat CPU 0 instructions: 450000002 cycles: 216378957 heartbeat IPC: 2.841 cumulative IPC: 1.962 (Simulation time: 03 hr 58 min 49 sec)
Heartbeat CPU 0 instructions: 460000000 cycles: 219927736 heartbeat IPC: 2.818 cumulative IPC: 1.977 (Simulation time: 04 hr 03 min 27 sec)
Heartbeat CPU 0 instructions: 470000001 cycles: 223412929 heartbeat IPC: 2.869 cumulative IPC: 1.992 (Simulation time: 04 hr 08 min 00 sec)
Heartbeat CPU 0 instructions: 480000003 cycles: 227159370 heartbeat IPC: 2.669 cumulative IPC: 2.004 (Simulation time: 04 hr 12 min 42 sec)
Heartbeat CPU 0 instructions: 490000000 cycles: 230652543 heartbeat IPC: 2.863 cumulative IPC: 2.017 (Simulation time: 04 hr 17 min 17 sec)
Heartbeat CPU 0 instructions: 500000004 cycles: 234279183 heartbeat IPC: 2.757 cumulative IPC: 2.029 (Simulation time: 04 hr 21 min 56 sec)
Heartbeat CPU 0 instructions: 510000003 cycles: 237966764 heartbeat IPC: 2.712 cumulative IPC: 2.041 (Simulation time: 04 hr 26 min 45 sec)
Heartbeat CPU 0 instructions: 520000000 cycles: 241341232 heartbeat IPC: 2.963 cumulative IPC: 2.054 (Simulation time: 04 hr 31 min 22 sec)
Heartbeat CPU 0 instructions: 530000002 cycles: 245047705 heartbeat IPC: 2.698 cumulative IPC: 2.064 (Simulation time: 04 hr 36 min 02 sec)
Heartbeat CPU 0 instructions: 540000000 cycles: 248574870 heartbeat IPC: 2.835 cumulative IPC: 2.076 (Simulation time: 04 hr 40 min 36 sec)
Heartbeat CPU 0 instructions: 550000001 cycles: 252228206 heartbeat IPC: 2.737 cumulative IPC: 2.086 (Simulation time: 04 hr 45 min 20 sec)
Heartbeat CPU 0 instructions: 560000004 cycles: 256114671 heartbeat IPC: 2.573 cumulative IPC: 2.094 (Simulation time: 04 hr 50 min 09 sec)
Heartbeat CPU 0 instructions: 570000004 cycles: 263060776 heartbeat IPC: 1.44 cumulative IPC: 2.076 (Simulation time: 04 hr 56 min 59 sec)
Heartbeat CPU 0 instructions: 580000003 cycles: 275506421 heartbeat IPC: 0.8035 cumulative IPC: 2.015 (Simulation time: 05 hr 07 min 28 sec)
Heartbeat CPU 0 instructions: 590000002 cycles: 290032210 heartbeat IPC: 0.6884 cumulative IPC: 1.946 (Simulation time: 05 hr 19 min 15 sec)
Heartbeat CPU 0 instructions: 600000000 cycles: 293808898 heartbeat IPC: 2.648 cumulative IPC: 1.955 (Simulation time: 05 hr 24 min 08 sec)
Heartbeat CPU 0 instructions: 610000002 cycles: 297610241 heartbeat IPC: 2.631 cumulative IPC: 1.964 (Simulation time: 05 hr 28 min 52 sec)
Heartbeat CPU 0 instructions: 620000001 cycles: 301016086 heartbeat IPC: 2.936 cumulative IPC: 1.976 (Simulation time: 05 hr 33 min 25 sec)
Heartbeat CPU 0 instructions: 630000002 cycles: 305160683 heartbeat IPC: 2.413 cumulative IPC: 1.982 (Simulation time: 05 hr 38 min 30 sec)
Heartbeat CPU 0 instructions: 640000001 cycles: 308922694 heartbeat IPC: 2.658 cumulative IPC: 1.991 (Simulation time: 05 hr 43 min 12 sec)
Heartbeat CPU 0 instructions: 650000000 cycles: 312585787 heartbeat IPC: 2.73 cumulative IPC: 2 (Simulation time: 05 hr 47 min 48 sec)
Simulation finished CPU 0 instructions: 600000001 cycles: 300048698 cumulative IPC: 2 (Simulation time: 05 hr 47 min 48 sec)
Simulation complete CPU 0 instructions: 600000001 cycles: 300048698 cumulative IPC: 2 (Simulation time: 05 hr 47 min 48 sec)

ChampSim completed all CPUs

=== Simulation ===
CPU 0 runs traces/400.perlbench-41B.champsimtrace.xz
Region of Interest Statistics

CPU 0 cumulative IPC: 2 instructions: 600000001 cycles: 300048698
CPU 0 Branch Prediction Accuracy: 96.64% MPKI: 6.948 Average ROB Occupancy at Mispredict: 45.95
Branch type MPKI
BRANCH_DIRECT_JUMP: 0.0123
BRANCH_INDIRECT: 0.323
BRANCH_CONDITIONAL: 6.4
BRANCH_DIRECT_CALL: 0.0043
BRANCH_INDIRECT_CALL: 0.2
BRANCH_RETURN: 0.00828

LLC TOTAL        ACCESS:     674225 HIT:     230166 MISS:     444059
LLC LOAD         ACCESS:     307975 HIT:     124393 MISS:     183582
LLC RFO          ACCESS:      25017 HIT:       8461 MISS:      16556
LLC PREFETCH     ACCESS:     261741 HIT:      31407 MISS:     230334
LLC WRITE        ACCESS:      63886 HIT:      61481 MISS:       2405
LLC TRANSLATION  ACCESS:      15606 HIT:       4424 MISS:      11182
LLC PREFETCH REQUESTED:     261748 ISSUED:     261741 USEFUL:      87371 USELESS:     128336
LLC AVERAGE MISS LATENCY: 716.8 cycles
cpu0_DTLB TOTAL        ACCESS:  141344641 HIT:  140670626 MISS:     674015
cpu0_DTLB LOAD         ACCESS:  141344641 HIT:  140670626 MISS:     674015
cpu0_DTLB RFO          ACCESS:          0 HIT:          0 MISS:          0
cpu0_DTLB PREFETCH     ACCESS:          0 HIT:          0 MISS:          0
cpu0_DTLB WRITE        ACCESS:          0 HIT:          0 MISS:          0
cpu0_DTLB TRANSLATION  ACCESS:          0 HIT:          0 MISS:          0
cpu0_DTLB PREFETCH REQUESTED:          0 ISSUED:          0 USEFUL:          0 USELESS:          0
cpu0_DTLB AVERAGE MISS LATENCY: 17.14 cycles
cpu0_ITLB TOTAL        ACCESS:    4856562 HIT:    4809847 MISS:      46715
cpu0_ITLB LOAD         ACCESS:    4856562 HIT:    4809847 MISS:      46715
cpu0_ITLB RFO          ACCESS:          0 HIT:          0 MISS:          0
cpu0_ITLB PREFETCH     ACCESS:          0 HIT:          0 MISS:          0
cpu0_ITLB WRITE        ACCESS:          0 HIT:          0 MISS:          0
cpu0_ITLB TRANSLATION  ACCESS:          0 HIT:          0 MISS:          0
cpu0_ITLB PREFETCH REQUESTED:          0 ISSUED:          0 USEFUL:          0 USELESS:          0
cpu0_ITLB AVERAGE MISS LATENCY: 10.58 cycles
cpu0_L1D TOTAL        ACCESS:  187996260 HIT:  186684209 MISS:    1312051
cpu0_L1D LOAD         ACCESS:  104669824 HIT:  103665856 MISS:    1003968
cpu0_L1D RFO          ACCESS:          0 HIT:          0 MISS:          0
cpu0_L1D PREFETCH     ACCESS:          0 HIT:          0 MISS:          0
cpu0_L1D WRITE        ACCESS:   83301968 HIT:   83016747 MISS:     285221
cpu0_L1D TRANSLATION  ACCESS:      24468 HIT:       1606 MISS:      22862
cpu0_L1D PREFETCH REQUESTED:          0 ISSUED:          0 USEFUL:          0 USELESS:          0
cpu0_L1D AVERAGE MISS LATENCY: 105.8 cycles
cpu0_L1I TOTAL        ACCESS:    5594016 HIT:    4873689 MISS:     720327
cpu0_L1I LOAD         ACCESS:    5594016 HIT:    4873689 MISS:     720327
cpu0_L1I RFO          ACCESS:          0 HIT:          0 MISS:          0
cpu0_L1I PREFETCH     ACCESS:          0 HIT:          0 MISS:          0
cpu0_L1I WRITE        ACCESS:          0 HIT:          0 MISS:          0
cpu0_L1I TRANSLATION  ACCESS:          0 HIT:          0 MISS:          0
cpu0_L1I PREFETCH REQUESTED:          0 ISSUED:          0 USEFUL:          0 USELESS:          0
cpu0_L1I AVERAGE MISS LATENCY: 17.15 cycles
cpu0_L2C TOTAL        ACCESS:    1381136 HIT:    1031732 MISS:     349404
cpu0_L2C LOAD         ACCESS:    1124986 HIT:     817011 MISS:     307975
cpu0_L2C RFO          ACCESS:      63689 HIT:      38672 MISS:      25017
cpu0_L2C PREFETCH     ACCESS:          0 HIT:          0 MISS:          0
cpu0_L2C WRITE        ACCESS:     169657 HIT:     168851 MISS:        806
cpu0_L2C TRANSLATION  ACCESS:      22804 HIT:       7198 MISS:      15606
cpu0_L2C PREFETCH REQUESTED:          0 ISSUED:          0 USEFUL:          0 USELESS:          0
cpu0_L2C AVERAGE MISS LATENCY: 410.3 cycles
cpu0_STLB TOTAL        ACCESS:     505866 HIT:     483075 MISS:      22791
cpu0_STLB LOAD         ACCESS:     505866 HIT:     483075 MISS:      22791
cpu0_STLB RFO          ACCESS:          0 HIT:          0 MISS:          0
cpu0_STLB PREFETCH     ACCESS:          0 HIT:          0 MISS:          0
cpu0_STLB WRITE        ACCESS:          0 HIT:          0 MISS:          0
cpu0_STLB TRANSLATION  ACCESS:          0 HIT:          0 MISS:          0
cpu0_STLB PREFETCH REQUESTED:          0 ISSUED:          0 USEFUL:          0 USELESS:          0
cpu0_STLB AVERAGE MISS LATENCY: 385.7 cycles

DRAM Statistics

Channel 0 RQ ROW_BUFFER_HIT:     143859
  ROW_BUFFER_MISS:     285574
 AVG DBUS CONGESTED CYCLE: 3.904
WQ ROW_BUFFER_HIT: Channel 0 
  ROW_BUFFER_MISS:       5482
  FULL:      44093
