WARNING: physical memory size is smaller than virtual memory size.

*** ChampSim Multicore Out-of-Order Simulator ***
Warmup Instructions: 50000000
Simulation Instructions: 600000000
Number of CPUs: 1
Page size: 4096

CPU 0 Tage branch predictor
Off-chip DRAM Size: 4 GiB Channels: 1 Width: 64-bit Data Race: 3200 MT/s
Heartbeat CPU 0 instructions: 10000000 cycles: 2500061 heartbeat IPC: 4 cumulative IPC: 4 (Simulation time: 00 hr 03 min 55 sec)
Heartbeat CPU 0 instructions: 20000000 cycles: 5000061 heartbeat IPC: 4 cumulative IPC: 4 (Simulation time: 00 hr 08 min 11 sec)
Heartbeat CPU 0 instructions: 30000000 cycles: 7500061 heartbeat IPC: 4 cumulative IPC: 4 (Simulation time: 00 hr 12 min 17 sec)
Heartbeat CPU 0 instructions: 40000000 cycles: 10000061 heartbeat IPC: 4 cumulative IPC: 4 (Simulation time: 00 hr 16 min 24 sec)
Heartbeat CPU 0 instructions: 50000000 cycles: 12500061 heartbeat IPC: 4 cumulative IPC: 4 (Simulation time: 00 hr 20 min 34 sec)
Warmup finished CPU 0 instructions: 50000000 cycles: 12500062 cumulative IPC: 4 (Simulation time: 00 hr 20 min 34 sec)
Warmup complete CPU 0 instructions: 50000000 cycles: 12500062 cumulative IPC: 4 (Simulation time: 00 hr 20 min 34 sec)
Heartbeat CPU 0 instructions: 60000004 cycles: 15503755 heartbeat IPC: 3.329 cumulative IPC: 3.329 (Simulation time: 00 hr 25 min 30 sec)
Heartbeat CPU 0 instructions: 70000003 cycles: 18381707 heartbeat IPC: 3.475 cumulative IPC: 3.4 (Simulation time: 00 hr 30 min 21 sec)
Heartbeat CPU 0 instructions: 80000002 cycles: 21403704 heartbeat IPC: 3.309 cumulative IPC: 3.369 (Simulation time: 00 hr 35 min 16 sec)
Heartbeat CPU 0 instructions: 90000000 cycles: 24125815 heartbeat IPC: 3.674 cumulative IPC: 3.441 (Simulation time: 00 hr 40 min 00 sec)
Heartbeat CPU 0 instructions: 100000003 cycles: 26891989 heartbeat IPC: 3.615 cumulative IPC: 3.474 (Simulation time: 00 hr 44 min 48 sec)
Heartbeat CPU 0 instructions: 110000001 cycles: 29797284 heartbeat IPC: 3.442 cumulative IPC: 3.469 (Simulation time: 00 hr 49 min 42 sec)
Heartbeat CPU 0 instructions: 120000001 cycles: 32521234 heartbeat IPC: 3.671 cumulative IPC: 3.496 (Simulation time: 00 hr 54 min 28 sec)
Heartbeat CPU 0 instructions: 130000003 cycles: 35423852 heartbeat IPC: 3.445 cumulative IPC: 3.49 (Simulation time: 00 hr 59 min 20 sec)
Heartbeat CPU 0 instructions: 140000002 cycles: 38261887 heartbeat IPC: 3.524 cumulative IPC: 3.494 (Simulation time: 01 hr 04 min 09 sec)
Heartbeat CPU 0 instructions: 150000001 cycles: 41035638 heartbeat IPC: 3.605 cumulative IPC: 3.504 (Simulation time: 01 hr 08 min 56 sec)
Heartbeat CPU 0 instructions: 160000000 cycles: 43951113 heartbeat IPC: 3.43 cumulative IPC: 3.497 (Simulation time: 01 hr 13 min 45 sec)
Heartbeat CPU 0 instructions: 170000001 cycles: 46882100 heartbeat IPC: 3.412 cumulative IPC: 3.49 (Simulation time: 01 hr 18 min 38 sec)
Heartbeat CPU 0 instructions: 180000000 cycles: 49680801 heartbeat IPC: 3.573 cumulative IPC: 3.496 (Simulation time: 01 hr 23 min 29 sec)
Heartbeat CPU 0 instructions: 190000002 cycles: 52389383 heartbeat IPC: 3.692 cumulative IPC: 3.51 (Simulation time: 01 hr 28 min 19 sec)
Heartbeat CPU 0 instructions: 200000002 cycles: 55219239 heartbeat IPC: 3.534 cumulative IPC: 3.511 (Simulation time: 01 hr 33 min 12 sec)
Heartbeat CPU 0 instructions: 210000000 cycles: 58119790 heartbeat IPC: 3.448 cumulative IPC: 3.507 (Simulation time: 01 hr 38 min 03 sec)
Heartbeat CPU 0 instructions: 220000001 cycles: 60886629 heartbeat IPC: 3.614 cumulative IPC: 3.513 (Simulation time: 01 hr 42 min 52 sec)
Heartbeat CPU 0 instructions: 230000002 cycles: 63782477 heartbeat IPC: 3.453 cumulative IPC: 3.51 (Simulation time: 01 hr 47 min 45 sec)
Heartbeat CPU 0 instructions: 240000004 cycles: 66744820 heartbeat IPC: 3.376 cumulative IPC: 3.503 (Simulation time: 01 hr 52 min 41 sec)
Heartbeat CPU 0 instructions: 250000003 cycles: 69654034 heartbeat IPC: 3.437 cumulative IPC: 3.499 (Simulation time: 01 hr 57 min 35 sec)
Heartbeat CPU 0 instructions: 260000001 cycles: 72449817 heartbeat IPC: 3.577 cumulative IPC: 3.503 (Simulation time: 02 hr 02 min 25 sec)
Heartbeat CPU 0 instructions: 270000002 cycles: 78095387 heartbeat IPC: 1.771 cumulative IPC: 3.354 (Simulation time: 02 hr 09 min 12 sec)
Heartbeat CPU 0 instructions: 280000000 cycles: 88111277 heartbeat IPC: 0.9984 cumulative IPC: 3.042 (Simulation time: 02 hr 19 min 00 sec)
Heartbeat CPU 0 instructions: 290000000 cycles: 97292797 heartbeat IPC: 1.089 cumulative IPC: 2.83 (Simulation time: 02 hr 28 min 15 sec)
Heartbeat CPU 0 instructions: 300000003 cycles: 102909785 heartbeat IPC: 1.78 cumulative IPC: 2.765 (Simulation time: 02 hr 35 min 30 sec)
Heartbeat CPU 0 instructions: 310000001 cycles: 112117329 heartbeat IPC: 1.086 cumulative IPC: 2.61 (Simulation time: 02 hr 45 min 05 sec)
Heartbeat CPU 0 instructions: 320000004 cycles: 116116274 heartbeat IPC: 2.501 cumulative IPC: 2.606 (Simulation time: 02 hr 50 min 57 sec)
Heartbeat CPU 0 instructions: 330000000 cycles: 119313417 heartbeat IPC: 3.128 cumulative IPC: 2.621 (Simulation time: 02 hr 56 min 08 sec)
Heartbeat CPU 0 instructions: 340000001 cycles: 122554213 heartbeat IPC: 3.086 cumulative IPC: 2.635 (Simulation time: 03 hr 01 min 24 sec)
Heartbeat CPU 0 instructions: 350000000 cycles: 125800027 heartbeat IPC: 3.081 cumulative IPC: 2.648 (Simulation time: 03 hr 06 min 40 sec)
Heartbeat CPU 0 instructions: 360000004 cycles: 128733475 heartbeat IPC: 3.409 cumulative IPC: 2.667 (Simulation time: 03 hr 11 min 43 sec)
Heartbeat CPU 0 instructions: 370000001 cycles: 131561961 heartbeat IPC: 3.535 cumulative IPC: 2.688 (Simulation time: 03 hr 16 min 38 sec)
Heartbeat CPU 0 instructions: 380000004 cycles: 134406632 heartbeat IPC: 3.515 cumulative IPC: 2.707 (Simulation time: 03 hr 21 min 36 sec)
Heartbeat CPU 0 instructions: 390000002 cycles: 137396818 heartbeat IPC: 3.344 cumulative IPC: 2.722 (Simulation time: 03 hr 26 min 40 sec)
Heartbeat CPU 0 instructions: 400000000 cycles: 140418088 heartbeat IPC: 3.31 cumulative IPC: 2.736 (Simulation time: 03 hr 31 min 43 sec)
Heartbeat CPU 0 instructions: 410000000 cycles: 146510498 heartbeat IPC: 1.641 cumulative IPC: 2.686 (Simulation time: 03 hr 38 min 58 sec)
Heartbeat CPU 0 instructions: 420000003 cycles: 156207936 heartbeat IPC: 1.031 cumulative IPC: 2.575 (Simulation time: 03 hr 48 min 45 sec)
Heartbeat CPU 0 instructions: 430000004 cycles: 161811500 heartbeat IPC: 1.785 cumulative IPC: 2.545 (Simulation time: 03 hr 55 min 56 sec)
Heartbeat CPU 0 instructions: 440000004 cycles: 167917913 heartbeat IPC: 1.638 cumulative IPC: 2.509 (Simulation time: 04 hr 03 min 19 sec)
Heartbeat CPU 0 instructions: 450000000 cycles: 173352461 heartbeat IPC: 1.84 cumulative IPC: 2.487 (Simulation time: 04 hr 10 min 13 sec)
Heartbeat CPU 0 instructions: 460000002 cycles: 184178842 heartbeat IPC: 0.9237 cumulative IPC: 2.388 (Simulation time: 04 hr 20 min 38 sec)
Heartbeat CPU 0 instructions: 470000003 cycles: 192477294 heartbeat IPC: 1.205 cumulative IPC: 2.334 (Simulation time: 04 hr 29 min 24 sec)
Heartbeat CPU 0 instructions: 480000000 cycles: 196009940 heartbeat IPC: 2.831 cumulative IPC: 2.343 (Simulation time: 04 hr 34 min 48 sec)
Heartbeat CPU 0 instructions: 490000001 cycles: 199523051 heartbeat IPC: 2.846 cumulative IPC: 2.353 (Simulation time: 04 hr 40 min 18 sec)
Heartbeat CPU 0 instructions: 500000002 cycles: 202690416 heartbeat IPC: 3.157 cumulative IPC: 2.366 (Simulation time: 04 hr 45 min 24 sec)
Heartbeat CPU 0 instructions: 510000000 cycles: 205652532 heartbeat IPC: 3.376 cumulative IPC: 2.382 (Simulation time: 04 hr 50 min 27 sec)
Heartbeat CPU 0 instructions: 520000000 cycles: 208708452 heartbeat IPC: 3.272 cumulative IPC: 2.395 (Simulation time: 04 hr 55 min 33 sec)
Heartbeat CPU 0 instructions: 530000001 cycles: 217998045 heartbeat IPC: 1.076 cumulative IPC: 2.336 (Simulation time: 05 hr 04 min 58 sec)
Heartbeat CPU 0 instructions: 540000000 cycles: 227817742 heartbeat IPC: 1.018 cumulative IPC: 2.276 (Simulation time: 05 hr 14 min 52 sec)
Heartbeat CPU 0 instructions: 550000004 cycles: 239676634 heartbeat IPC: 0.8432 cumulative IPC: 2.201 (Simulation time: 05 hr 26 min 07 sec)
Heartbeat CPU 0 instructions: 560000004 cycles: 243555831 heartbeat IPC: 2.578 cumulative IPC: 2.207 (Simulation time: 05 hr 32 min 00 sec)
Heartbeat CPU 0 instructions: 570000002 cycles: 246385594 heartbeat IPC: 3.534 cumulative IPC: 2.223 (Simulation time: 05 hr 37 min 24 sec)
Heartbeat CPU 0 instructions: 580000000 cycles: 249316155 heartbeat IPC: 3.412 cumulative IPC: 2.238 (Simulation time: 05 hr 42 min 33 sec)
Heartbeat CPU 0 instructions: 590000001 cycles: 252252465 heartbeat IPC: 3.406 cumulative IPC: 2.252 (Simulation time: 05 hr 47 min 25 sec)
Heartbeat CPU 0 instructions: 600000003 cycles: 254950689 heartbeat IPC: 3.706 cumulative IPC: 2.269 (Simulation time: 05 hr 52 min 42 sec)
Heartbeat CPU 0 instructions: 610000001 cycles: 257823600 heartbeat IPC: 3.481 cumulative IPC: 2.283 (Simulation time: 05 hr 57 min 54 sec)
Heartbeat CPU 0 instructions: 620000004 cycles: 260781835 heartbeat IPC: 3.38 cumulative IPC: 2.296 (Simulation time: 06 hr 03 min 16 sec)
Heartbeat CPU 0 instructions: 630000002 cycles: 263598058 heartbeat IPC: 3.551 cumulative IPC: 2.31 (Simulation time: 06 hr 08 min 33 sec)
Heartbeat CPU 0 instructions: 640000004 cycles: 266649787 heartbeat IPC: 3.277 cumulative IPC: 2.321 (Simulation time: 06 hr 14 min 12 sec)
Heartbeat CPU 0 instructions: 650000001 cycles: 269358266 heartbeat IPC: 3.692 cumulative IPC: 2.336 (Simulation time: 06 hr 19 min 02 sec)
Simulation finished CPU 0 instructions: 600000001 cycles: 256858205 cumulative IPC: 2.336 (Simulation time: 06 hr 19 min 02 sec)
Simulation complete CPU 0 instructions: 600000001 cycles: 256858205 cumulative IPC: 2.336 (Simulation time: 06 hr 19 min 02 sec)

ChampSim completed all CPUs

=== Simulation ===
CPU 0 runs traces/400.perlbench-50B.champsimtrace.xz
Region of Interest Statistics

CPU 0 cumulative IPC: 2.336 instructions: 600000001 cycles: 256858205
CPU 0 Branch Prediction Accuracy: 99.01% MPKI: 2.04 Average ROB Occupancy at Mispredict: 94.39
Branch type MPKI
BRANCH_DIRECT_JUMP: 0.0176
BRANCH_INDIRECT: 0.38
BRANCH_CONDITIONAL: 1.19
BRANCH_DIRECT_CALL: 0.0067
BRANCH_INDIRECT_CALL: 0.431
BRANCH_RETURN: 0.0161

LLC TOTAL        ACCESS:     889688 HIT:     298097 MISS:     591591
LLC LOAD         ACCESS:     377549 HIT:     136971 MISS:     240578
LLC RFO          ACCESS:      32717 HIT:       8261 MISS:      24456
LLC PREFETCH     ACCESS:     377549 HIT:     120939 MISS:     256610
LLC WRITE        ACCESS:      83690 HIT:      30421 MISS:      53269
LLC TRANSLATION  ACCESS:      18183 HIT:       1505 MISS:      16678
LLC PREFETCH REQUESTED:     377549 ISSUED:     377549 USEFUL:      80352 USELESS:     111852
LLC AVERAGE MISS LATENCY: 592.9 cycles
cpu0_DTLB TOTAL        ACCESS:  133146679 HIT:  131794847 MISS:    1351832
cpu0_DTLB LOAD         ACCESS:  133146679 HIT:  131794847 MISS:    1351832
cpu0_DTLB RFO          ACCESS:          0 HIT:          0 MISS:          0
cpu0_DTLB PREFETCH     ACCESS:          0 HIT:          0 MISS:          0
cpu0_DTLB WRITE        ACCESS:          0 HIT:          0 MISS:          0
cpu0_DTLB TRANSLATION  ACCESS:          0 HIT:          0 MISS:          0
cpu0_DTLB PREFETCH REQUESTED:          0 ISSUED:          0 USEFUL:          0 USELESS:          0
cpu0_DTLB AVERAGE MISS LATENCY: 15.46 cycles
cpu0_ITLB TOTAL        ACCESS:    8990405 HIT:    8780048 MISS:     210357
cpu0_ITLB LOAD         ACCESS:    8990405 HIT:    8780048 MISS:     210357
cpu0_ITLB RFO          ACCESS:          0 HIT:          0 MISS:          0
cpu0_ITLB PREFETCH     ACCESS:          0 HIT:          0 MISS:          0
cpu0_ITLB WRITE        ACCESS:          0 HIT:          0 MISS:          0
cpu0_ITLB TRANSLATION  ACCESS:          0 HIT:          0 MISS:          0
cpu0_ITLB PREFETCH REQUESTED:          0 ISSUED:          0 USEFUL:          0 USELESS:          0
cpu0_ITLB AVERAGE MISS LATENCY: 3.583 cycles
cpu0_L1D TOTAL        ACCESS:  178221775 HIT:  175286315 MISS:    2935460
cpu0_L1D LOAD         ACCESS:   92703810 HIT:   90298609 MISS:    2405201
cpu0_L1D RFO          ACCESS:          0 HIT:          0 MISS:          0
cpu0_L1D PREFETCH     ACCESS:          0 HIT:          0 MISS:          0
cpu0_L1D WRITE        ACCESS:   85489429 HIT:   84985702 MISS:     503727
cpu0_L1D TRANSLATION  ACCESS:      28536 HIT:       2004 MISS:      26532
cpu0_L1D PREFETCH REQUESTED:          0 ISSUED:          0 USEFUL:          0 USELESS:          0
cpu0_L1D AVERAGE MISS LATENCY: 68.06 cycles
cpu0_L1I TOTAL        ACCESS:   10510280 HIT:    8610207 MISS:    1900073
cpu0_L1I LOAD         ACCESS:   10510280 HIT:    8610207 MISS:    1900073
cpu0_L1I RFO          ACCESS:          0 HIT:          0 MISS:          0
cpu0_L1I PREFETCH     ACCESS:          0 HIT:          0 MISS:          0
cpu0_L1I WRITE        ACCESS:          0 HIT:          0 MISS:          0
cpu0_L1I TRANSLATION  ACCESS:          0 HIT:          0 MISS:          0
cpu0_L1I PREFETCH REQUESTED:          0 ISSUED:          0 USEFUL:          0 USELESS:          0
cpu0_L1I AVERAGE MISS LATENCY: 12.97 cycles
cpu0_L2C TOTAL        ACCESS:    3235873 HIT:    2806487 MISS:     429386
cpu0_L2C LOAD         ACCESS:    2709124 HIT:    2331575 MISS:     377549
cpu0_L2C RFO          ACCESS:     135538 HIT:     102821 MISS:      32717
cpu0_L2C PREFETCH     ACCESS:          0 HIT:          0 MISS:          0
cpu0_L2C WRITE        ACCESS:     364764 HIT:     363827 MISS:        937
cpu0_L2C TRANSLATION  ACCESS:      26447 HIT:       8264 MISS:      18183
cpu0_L2C PREFETCH REQUESTED:          0 ISSUED:          0 USEFUL:          0 USELESS:          0
cpu0_L2C AVERAGE MISS LATENCY: 487.8 cycles
cpu0_STLB TOTAL        ACCESS:    1010025 HIT:     983333 MISS:      26692
cpu0_STLB LOAD         ACCESS:    1010025 HIT:     983333 MISS:      26692
cpu0_STLB RFO          ACCESS:          0 HIT:          0 MISS:          0
cpu0_STLB PREFETCH     ACCESS:          0 HIT:          0 MISS:          0
cpu0_STLB WRITE        ACCESS:          0 HIT:          0 MISS:          0
cpu0_STLB TRANSLATION  ACCESS:          0 HIT:          0 MISS:          0
cpu0_STLB PREFETCH REQUESTED:          0 ISSUED:          0 USEFUL:          0 USELESS:          0
cpu0_STLB AVERAGE MISS LATENCY: 595.9 cycles

DRAM Statistics

Channel 0 RQ ROW_BUFFER_HIT:      78826
  ROW_BUFFER_MISS:     376778
 AVG DBUS CONGESTED CYCLE: 3.902
WQ ROW_BUFFER_HIT: Channel 0 
  ROW_BUFFER_MISS:       5560
  FULL:      60165
