WARNING: physical memory size is smaller than virtual memory size.

*** ChampSim Multicore Out-of-Order Simulator ***
Warmup Instructions: 50000000
Simulation Instructions: 600000000
Number of CPUs: 1
Page size: 4096

Off-chip DRAM Size: 4 GiB Channels: 1 Width: 64-bit Data Race: 3200 MT/s
Heartbeat CPU 0 instructions: 10000000 cycles: 2500061 heartbeat IPC: 4 cumulative IPC: 4 (Simulation time: 00 hr 03 min 24 sec)
Heartbeat CPU 0 instructions: 20000000 cycles: 5000061 heartbeat IPC: 4 cumulative IPC: 4 (Simulation time: 00 hr 06 min 48 sec)
Heartbeat CPU 0 instructions: 30000000 cycles: 7500061 heartbeat IPC: 4 cumulative IPC: 4 (Simulation time: 00 hr 10 min 28 sec)
Heartbeat CPU 0 instructions: 40000000 cycles: 10000061 heartbeat IPC: 4 cumulative IPC: 4 (Simulation time: 00 hr 13 min 52 sec)
Heartbeat CPU 0 instructions: 50000000 cycles: 12500061 heartbeat IPC: 4 cumulative IPC: 4 (Simulation time: 00 hr 17 min 36 sec)
Warmup finished CPU 0 instructions: 50000000 cycles: 12500062 cumulative IPC: 4 (Simulation time: 00 hr 17 min 36 sec)
Warmup complete CPU 0 instructions: 50000000 cycles: 12500062 cumulative IPC: 4 (Simulation time: 00 hr 17 min 36 sec)
Heartbeat CPU 0 instructions: 60000002 cycles: 16445999 heartbeat IPC: 2.534 cumulative IPC: 2.534 (Simulation time: 00 hr 22 min 30 sec)
Heartbeat CPU 0 instructions: 70000003 cycles: 20769163 heartbeat IPC: 2.313 cumulative IPC: 2.419 (Simulation time: 00 hr 27 min 20 sec)
Heartbeat CPU 0 instructions: 80000003 cycles: 25245416 heartbeat IPC: 2.234 cumulative IPC: 2.354 (Simulation time: 00 hr 32 min 31 sec)
Heartbeat CPU 0 instructions: 90000000 cycles: 28937578 heartbeat IPC: 2.708 cumulative IPC: 2.433 (Simulation time: 00 hr 37 min 16 sec)
Heartbeat CPU 0 instructions: 100000003 cycles: 32840854 heartbeat IPC: 2.562 cumulative IPC: 2.458 (Simulation time: 00 hr 42 min 10 sec)
Heartbeat CPU 0 instructions: 110000002 cycles: 36946605 heartbeat IPC: 2.436 cumulative IPC: 2.454 (Simulation time: 00 hr 47 min 11 sec)
Heartbeat CPU 0 instructions: 120000001 cycles: 40665239 heartbeat IPC: 2.689 cumulative IPC: 2.485 (Simulation time: 00 hr 52 min 13 sec)
Heartbeat CPU 0 instructions: 130000003 cycles: 44441520 heartbeat IPC: 2.648 cumulative IPC: 2.505 (Simulation time: 00 hr 56 min 58 sec)
Heartbeat CPU 0 instructions: 140000002 cycles: 48576040 heartbeat IPC: 2.419 cumulative IPC: 2.495 (Simulation time: 01 hr 01 min 55 sec)
Heartbeat CPU 0 instructions: 150000001 cycles: 52629234 heartbeat IPC: 2.467 cumulative IPC: 2.492 (Simulation time: 01 hr 06 min 34 sec)
Heartbeat CPU 0 instructions: 160000000 cycles: 56288207 heartbeat IPC: 2.733 cumulative IPC: 2.512 (Simulation time: 01 hr 11 min 17 sec)
Heartbeat CPU 0 instructions: 170000001 cycles: 60468425 heartbeat IPC: 2.392 cumulative IPC: 2.502 (Simulation time: 01 hr 16 min 06 sec)
Heartbeat CPU 0 instructions: 180000001 cycles: 63933063 heartbeat IPC: 2.886 cumulative IPC: 2.528 (Simulation time: 01 hr 20 min 30 sec)
Heartbeat CPU 0 instructions: 190000002 cycles: 67523846 heartbeat IPC: 2.785 cumulative IPC: 2.544 (Simulation time: 01 hr 25 min 15 sec)
Heartbeat CPU 0 instructions: 200000002 cycles: 71308535 heartbeat IPC: 2.642 cumulative IPC: 2.551 (Simulation time: 01 hr 29 min 45 sec)
Heartbeat CPU 0 instructions: 210000000 cycles: 74950208 heartbeat IPC: 2.746 cumulative IPC: 2.562 (Simulation time: 01 hr 34 min 12 sec)
Heartbeat CPU 0 instructions: 220000001 cycles: 78823696 heartbeat IPC: 2.582 cumulative IPC: 2.563 (Simulation time: 01 hr 38 min 40 sec)
Heartbeat CPU 0 instructions: 230000002 cycles: 82666997 heartbeat IPC: 2.602 cumulative IPC: 2.565 (Simulation time: 01 hr 43 min 12 sec)
Heartbeat CPU 0 instructions: 240000001 cycles: 86878248 heartbeat IPC: 2.375 cumulative IPC: 2.555 (Simulation time: 01 hr 47 min 57 sec)
Heartbeat CPU 0 instructions: 250000003 cycles: 91450749 heartbeat IPC: 2.187 cumulative IPC: 2.533 (Simulation time: 01 hr 52 min 52 sec)
Heartbeat CPU 0 instructions: 260000000 cycles: 95247652 heartbeat IPC: 2.634 cumulative IPC: 2.538 (Simulation time: 01 hr 57 min 27 sec)
Heartbeat CPU 0 instructions: 270000003 cycles: 102424567 heartbeat IPC: 1.393 cumulative IPC: 2.446 (Simulation time: 02 hr 04 min 08 sec)
Heartbeat CPU 0 instructions: 280000000 cycles: 114785722 heartbeat IPC: 0.809 cumulative IPC: 2.249 (Simulation time: 02 hr 14 min 13 sec)
Heartbeat CPU 0 instructions: 290000000 cycles: 126826225 heartbeat IPC: 0.8305 cumulative IPC: 2.099 (Simulation time: 02 hr 24 min 06 sec)
Heartbeat CPU 0 instructions: 300000003 cycles: 134663756 heartbeat IPC: 1.276 cumulative IPC: 2.046 (Simulation time: 02 hr 31 min 39 sec)
Heartbeat CPU 0 instructions: 310000004 cycles: 146747471 heartbeat IPC: 0.8276 cumulative IPC: 1.937 (Simulation time: 02 hr 41 min 54 sec)
Heartbeat CPU 0 instructions: 320000004 cycles: 152077856 heartbeat IPC: 1.876 cumulative IPC: 1.934 (Simulation time: 02 hr 47 min 40 sec)
Heartbeat CPU 0 instructions: 330000000 cycles: 156151406 heartbeat IPC: 2.455 cumulative IPC: 1.949 (Simulation time: 02 hr 52 min 34 sec)
Heartbeat CPU 0 instructions: 340000001 cycles: 160353158 heartbeat IPC: 2.38 cumulative IPC: 1.961 (Simulation time: 02 hr 57 min 24 sec)
Heartbeat CPU 0 instructions: 350000004 cycles: 164450265 heartbeat IPC: 2.441 cumulative IPC: 1.974 (Simulation time: 03 hr 02 min 15 sec)
Heartbeat CPU 0 instructions: 360000003 cycles: 168162003 heartbeat IPC: 2.694 cumulative IPC: 1.991 (Simulation time: 03 hr 06 min 50 sec)
Heartbeat CPU 0 instructions: 370000001 cycles: 171819078 heartbeat IPC: 2.734 cumulative IPC: 2.009 (Simulation time: 03 hr 11 min 25 sec)
Heartbeat CPU 0 instructions: 380000004 cycles: 175356373 heartbeat IPC: 2.827 cumulative IPC: 2.026 (Simulation time: 03 hr 15 min 54 sec)
Heartbeat CPU 0 instructions: 390000002 cycles: 179073638 heartbeat IPC: 2.69 cumulative IPC: 2.041 (Simulation time: 03 hr 20 min 32 sec)
Heartbeat CPU 0 instructions: 400000000 cycles: 182967267 heartbeat IPC: 2.568 cumulative IPC: 2.053 (Simulation time: 03 hr 25 min 18 sec)
Heartbeat CPU 0 instructions: 410000000 cycles: 190133708 heartbeat IPC: 1.395 cumulative IPC: 2.027 (Simulation time: 03 hr 32 min 05 sec)
Heartbeat CPU 0 instructions: 420000003 cycles: 202340749 heartbeat IPC: 0.8192 cumulative IPC: 1.949 (Simulation time: 03 hr 42 min 07 sec)
Heartbeat CPU 0 instructions: 430000000 cycles: 210412344 heartbeat IPC: 1.239 cumulative IPC: 1.92 (Simulation time: 03 hr 49 min 49 sec)
Heartbeat CPU 0 instructions: 440000004 cycles: 218818563 heartbeat IPC: 1.19 cumulative IPC: 1.89 (Simulation time: 03 hr 57 min 32 sec)
Heartbeat CPU 0 instructions: 450000000 cycles: 226700984 heartbeat IPC: 1.269 cumulative IPC: 1.867 (Simulation time: 04 hr 05 min 00 sec)
Heartbeat CPU 0 instructions: 460000002 cycles: 240858065 heartbeat IPC: 0.7064 cumulative IPC: 1.795 (Simulation time: 04 hr 16 min 18 sec)
Heartbeat CPU 0 instructions: 470000003 cycles: 251488953 heartbeat IPC: 0.9407 cumulative IPC: 1.757 (Simulation time: 04 hr 25 min 27 sec)
Heartbeat CPU 0 instructions: 480000003 cycles: 255891054 heartbeat IPC: 2.272 cumulative IPC: 1.767 (Simulation time: 04 hr 30 min 30 sec)
Heartbeat CPU 0 instructions: 490000001 cycles: 260053179 heartbeat IPC: 2.403 cumulative IPC: 1.777 (Simulation time: 04 hr 35 min 21 sec)
Heartbeat CPU 0 instructions: 500000002 cycles: 263911900 heartbeat IPC: 2.592 cumulative IPC: 1.79 (Simulation time: 04 hr 40 min 05 sec)
Heartbeat CPU 0 instructions: 510000000 cycles: 267464912 heartbeat IPC: 2.815 cumulative IPC: 1.804 (Simulation time: 04 hr 44 min 36 sec)
Heartbeat CPU 0 instructions: 520000000 cycles: 271182697 heartbeat IPC: 2.69 cumulative IPC: 1.817 (Simulation time: 04 hr 49 min 10 sec)
Heartbeat CPU 0 instructions: 530000001 cycles: 282642143 heartbeat IPC: 0.8726 cumulative IPC: 1.777 (Simulation time: 04 hr 58 min 40 sec)
Heartbeat CPU 0 instructions: 540000000 cycles: 295692364 heartbeat IPC: 0.7663 cumulative IPC: 1.73 (Simulation time: 05 hr 09 min 15 sec)
Heartbeat CPU 0 instructions: 550000004 cycles: 310452525 heartbeat IPC: 0.6775 cumulative IPC: 1.678 (Simulation time: 05 hr 21 min 02 sec)
Heartbeat CPU 0 instructions: 560000004 cycles: 315062002 heartbeat IPC: 2.169 cumulative IPC: 1.686 (Simulation time: 05 hr 26 min 09 sec)
Heartbeat CPU 0 instructions: 570000001 cycles: 318196968 heartbeat IPC: 3.19 cumulative IPC: 1.701 (Simulation time: 05 hr 30 min 28 sec)
Heartbeat CPU 0 instructions: 580000003 cycles: 321745379 heartbeat IPC: 2.818 cumulative IPC: 1.714 (Simulation time: 05 hr 34 min 52 sec)
Heartbeat CPU 0 instructions: 590000002 cycles: 325372061 heartbeat IPC: 2.757 cumulative IPC: 1.726 (Simulation time: 05 hr 39 min 23 sec)
Heartbeat CPU 0 instructions: 600000003 cycles: 328439438 heartbeat IPC: 3.26 cumulative IPC: 1.741 (Simulation time: 05 hr 43 min 36 sec)
Heartbeat CPU 0 instructions: 610000001 cycles: 331949991 heartbeat IPC: 2.849 cumulative IPC: 1.753 (Simulation time: 05 hr 48 min 07 sec)
Heartbeat CPU 0 instructions: 620000000 cycles: 335967326 heartbeat IPC: 2.489 cumulative IPC: 1.762 (Simulation time: 05 hr 52 min 52 sec)
Heartbeat CPU 0 instructions: 630000002 cycles: 339335988 heartbeat IPC: 2.969 cumulative IPC: 1.775 (Simulation time: 05 hr 57 min 14 sec)
Heartbeat CPU 0 instructions: 640000004 cycles: 343346962 heartbeat IPC: 2.493 cumulative IPC: 1.783 (Simulation time: 06 hr 01 min 58 sec)
Heartbeat CPU 0 instructions: 650000001 cycles: 347169689 heartbeat IPC: 2.616 cumulative IPC: 1.793 (Simulation time: 06 hr 06 min 40 sec)
Simulation finished CPU 0 instructions: 600000001 cycles: 334669628 cumulative IPC: 1.793 (Simulation time: 06 hr 06 min 40 sec)
Simulation complete CPU 0 instructions: 600000001 cycles: 334669628 cumulative IPC: 1.793 (Simulation time: 06 hr 06 min 40 sec)

ChampSim completed all CPUs

=== Simulation ===
CPU 0 runs traces/400.perlbench-50B.champsimtrace.xz
Region of Interest Statistics

CPU 0 cumulative IPC: 1.793 instructions: 600000001 cycles: 334669628
CPU 0 Branch Prediction Accuracy: 96.2% MPKI: 7.839 Average ROB Occupancy at Mispredict: 43.69
Branch type MPKI
BRANCH_DIRECT_JUMP: 0.0176
BRANCH_INDIRECT: 0.38
BRANCH_CONDITIONAL: 6.99
BRANCH_DIRECT_CALL: 0.0067
BRANCH_INDIRECT_CALL: 0.431
BRANCH_RETURN: 0.0161

LLC TOTAL        ACCESS:     511295 HIT:     138751 MISS:     372544
LLC LOAD         ACCESS:     376481 HIT:      99838 MISS:     276643
LLC RFO          ACCESS:      32906 HIT:       8190 MISS:      24716
LLC PREFETCH     ACCESS:          0 HIT:          0 MISS:          0
LLC WRITE        ACCESS:      83755 HIT:      29032 MISS:      54723
LLC TRANSLATION  ACCESS:      18153 HIT:       1691 MISS:      16462
LLC PREFETCH REQUESTED:          0 ISSUED:          0 USEFUL:          0 USELESS:          0
LLC AVERAGE MISS LATENCY: 482.1 cycles
cpu0_DTLB TOTAL        ACCESS:  146451759 HIT:  145148106 MISS:    1303653
cpu0_DTLB LOAD         ACCESS:  146451759 HIT:  145148106 MISS:    1303653
cpu0_DTLB RFO          ACCESS:          0 HIT:          0 MISS:          0
cpu0_DTLB PREFETCH     ACCESS:          0 HIT:          0 MISS:          0
cpu0_DTLB WRITE        ACCESS:          0 HIT:          0 MISS:          0
cpu0_DTLB TRANSLATION  ACCESS:          0 HIT:          0 MISS:          0
cpu0_DTLB PREFETCH REQUESTED:          0 ISSUED:          0 USEFUL:          0 USELESS:          0
cpu0_DTLB AVERAGE MISS LATENCY: 14.1 cycles
cpu0_ITLB TOTAL        ACCESS:    8987058 HIT:    8802315 MISS:     184743
cpu0_ITLB LOAD         ACCESS:    8987058 HIT:    8802315 MISS:     184743
cpu0_ITLB RFO          ACCESS:          0 HIT:          0 MISS:          0
cpu0_ITLB PREFETCH     ACCESS:          0 HIT:          0 MISS:          0
cpu0_ITLB WRITE        ACCESS:          0 HIT:          0 MISS:          0
cpu0_ITLB TRANSLATION  ACCESS:          0 HIT:          0 MISS:          0
cpu0_ITLB PREFETCH REQUESTED:          0 ISSUED:          0 USEFUL:          0 USELESS:          0
cpu0_ITLB AVERAGE MISS LATENCY: 3.977 cycles
cpu0_L1D TOTAL        ACCESS:  193261205 HIT:  190406260 MISS:    2854945
cpu0_L1D LOAD         ACCESS:  107414643 HIT:  105065150 MISS:    2349493
cpu0_L1D RFO          ACCESS:          0 HIT:          0 MISS:          0
cpu0_L1D PREFETCH     ACCESS:          0 HIT:          0 MISS:          0
cpu0_L1D WRITE        ACCESS:   85818042 HIT:   85339095 MISS:     478947
cpu0_L1D TRANSLATION  ACCESS:      28520 HIT:       2015 MISS:      26505
cpu0_L1D PREFETCH REQUESTED:          0 ISSUED:          0 USEFUL:          0 USELESS:          0
cpu0_L1D AVERAGE MISS LATENCY: 64.44 cycles
cpu0_L1I TOTAL        ACCESS:   10421147 HIT:    8658130 MISS:    1763017
cpu0_L1I LOAD         ACCESS:   10421147 HIT:    8658130 MISS:    1763017
cpu0_L1I RFO          ACCESS:          0 HIT:          0 MISS:          0
cpu0_L1I PREFETCH     ACCESS:          0 HIT:          0 MISS:          0
cpu0_L1I WRITE        ACCESS:          0 HIT:          0 MISS:          0
cpu0_L1I TRANSLATION  ACCESS:          0 HIT:          0 MISS:          0
cpu0_L1I PREFETCH REQUESTED:          0 ISSUED:          0 USEFUL:          0 USELESS:          0
cpu0_L1I AVERAGE MISS LATENCY: 14.43 cycles
cpu0_L2C TOTAL        ACCESS:    3232254 HIT:    2803779 MISS:     428475
cpu0_L2C LOAD         ACCESS:    2710091 HIT:    2333610 MISS:     376481
cpu0_L2C RFO          ACCESS:     133276 HIT:     100370 MISS:      32906
cpu0_L2C PREFETCH     ACCESS:          0 HIT:          0 MISS:          0
cpu0_L2C WRITE        ACCESS:     362450 HIT:     361515 MISS:        935
cpu0_L2C TRANSLATION  ACCESS:      26437 HIT:       8284 MISS:      18153
cpu0_L2C PREFETCH REQUESTED:          0 ISSUED:          0 USEFUL:          0 USELESS:          0
cpu0_L2C AVERAGE MISS LATENCY: 439.8 cycles
cpu0_STLB TOTAL        ACCESS:    1008460 HIT:     981768 MISS:      26692
cpu0_STLB LOAD         ACCESS:    1008460 HIT:     981768 MISS:      26692
cpu0_STLB RFO          ACCESS:          0 HIT:          0 MISS:          0
cpu0_STLB PREFETCH     ACCESS:          0 HIT:          0 MISS:          0
cpu0_STLB WRITE        ACCESS:          0 HIT:          0 MISS:          0
cpu0_STLB TRANSLATION  ACCESS:          0 HIT:          0 MISS:          0
cpu0_STLB PREFETCH REQUESTED:          0 ISSUED:          0 USEFUL:          0 USELESS:          0
cpu0_STLB AVERAGE MISS LATENCY: 476.8 cycles

DRAM Statistics

Channel 0 RQ ROW_BUFFER_HIT:      46215
  ROW_BUFFER_MISS:     271427
 AVG DBUS CONGESTED CYCLE: 3.83
WQ ROW_BUFFER_HIT: Channel 0 
  ROW_BUFFER_MISS:      10178
  FULL:      48294
