WARNING: physical memory size is smaller than virtual memory size.

*** ChampSim Multicore Out-of-Order Simulator ***
Warmup Instructions: 50000000
Simulation Instructions: 600000000
Number of CPUs: 1
Page size: 4096

CPU 0 Tage branch predictor
Off-chip DRAM Size: 4 GiB Channels: 1 Width: 64-bit Data Race: 3200 MT/s
Heartbeat CPU 0 instructions: 10000000 cycles: 2500061 heartbeat IPC: 4 cumulative IPC: 4 (Simulation time: 00 hr 00 min 40 sec)
Heartbeat CPU 0 instructions: 20000000 cycles: 5000061 heartbeat IPC: 4 cumulative IPC: 4 (Simulation time: 00 hr 01 min 22 sec)
Heartbeat CPU 0 instructions: 30000000 cycles: 7500061 heartbeat IPC: 4 cumulative IPC: 4 (Simulation time: 00 hr 02 min 04 sec)
Heartbeat CPU 0 instructions: 40000000 cycles: 10000061 heartbeat IPC: 4 cumulative IPC: 4 (Simulation time: 00 hr 02 min 43 sec)
Heartbeat CPU 0 instructions: 50000000 cycles: 12500061 heartbeat IPC: 4 cumulative IPC: 4 (Simulation time: 00 hr 03 min 19 sec)
Warmup finished CPU 0 instructions: 50000000 cycles: 12500062 cumulative IPC: 4 (Simulation time: 00 hr 03 min 19 sec)
Warmup complete CPU 0 instructions: 50000000 cycles: 12500062 cumulative IPC: 4 (Simulation time: 00 hr 03 min 19 sec)
Heartbeat CPU 0 instructions: 60000004 cycles: 15503755 heartbeat IPC: 3.329 cumulative IPC: 3.329 (Simulation time: 00 hr 04 min 02 sec)
Heartbeat CPU 0 instructions: 70000003 cycles: 18381707 heartbeat IPC: 3.475 cumulative IPC: 3.4 (Simulation time: 00 hr 04 min 44 sec)
Heartbeat CPU 0 instructions: 80000002 cycles: 21403704 heartbeat IPC: 3.309 cumulative IPC: 3.369 (Simulation time: 00 hr 05 min 25 sec)
Heartbeat CPU 0 instructions: 90000000 cycles: 24125815 heartbeat IPC: 3.674 cumulative IPC: 3.441 (Simulation time: 00 hr 06 min 05 sec)
Heartbeat CPU 0 instructions: 100000003 cycles: 26891989 heartbeat IPC: 3.615 cumulative IPC: 3.474 (Simulation time: 00 hr 06 min 45 sec)
Heartbeat CPU 0 instructions: 110000001 cycles: 29797284 heartbeat IPC: 3.442 cumulative IPC: 3.469 (Simulation time: 00 hr 07 min 26 sec)
Heartbeat CPU 0 instructions: 120000001 cycles: 32521234 heartbeat IPC: 3.671 cumulative IPC: 3.496 (Simulation time: 00 hr 08 min 07 sec)
Heartbeat CPU 0 instructions: 130000003 cycles: 35423852 heartbeat IPC: 3.445 cumulative IPC: 3.49 (Simulation time: 00 hr 08 min 49 sec)
Heartbeat CPU 0 instructions: 140000002 cycles: 38261887 heartbeat IPC: 3.524 cumulative IPC: 3.494 (Simulation time: 00 hr 09 min 31 sec)
Heartbeat CPU 0 instructions: 150000001 cycles: 41035638 heartbeat IPC: 3.605 cumulative IPC: 3.504 (Simulation time: 00 hr 10 min 12 sec)
Heartbeat CPU 0 instructions: 160000000 cycles: 43951113 heartbeat IPC: 3.43 cumulative IPC: 3.497 (Simulation time: 00 hr 10 min 53 sec)
Heartbeat CPU 0 instructions: 170000001 cycles: 46882100 heartbeat IPC: 3.412 cumulative IPC: 3.49 (Simulation time: 00 hr 11 min 34 sec)
Heartbeat CPU 0 instructions: 180000000 cycles: 49680801 heartbeat IPC: 3.573 cumulative IPC: 3.496 (Simulation time: 00 hr 12 min 15 sec)
Heartbeat CPU 0 instructions: 190000002 cycles: 52389698 heartbeat IPC: 3.692 cumulative IPC: 3.51 (Simulation time: 00 hr 12 min 57 sec)
Heartbeat CPU 0 instructions: 200000002 cycles: 55219274 heartbeat IPC: 3.534 cumulative IPC: 3.511 (Simulation time: 00 hr 13 min 38 sec)
Heartbeat CPU 0 instructions: 210000000 cycles: 58120080 heartbeat IPC: 3.447 cumulative IPC: 3.507 (Simulation time: 00 hr 14 min 19 sec)
Heartbeat CPU 0 instructions: 220000001 cycles: 60885929 heartbeat IPC: 3.616 cumulative IPC: 3.513 (Simulation time: 00 hr 14 min 59 sec)
Heartbeat CPU 0 instructions: 230000002 cycles: 63780165 heartbeat IPC: 3.455 cumulative IPC: 3.51 (Simulation time: 00 hr 15 min 40 sec)
Heartbeat CPU 0 instructions: 240000004 cycles: 66741425 heartbeat IPC: 3.377 cumulative IPC: 3.503 (Simulation time: 00 hr 16 min 22 sec)
Heartbeat CPU 0 instructions: 250000003 cycles: 69652874 heartbeat IPC: 3.435 cumulative IPC: 3.499 (Simulation time: 00 hr 17 min 03 sec)
Heartbeat CPU 0 instructions: 260000001 cycles: 72448170 heartbeat IPC: 3.577 cumulative IPC: 3.503 (Simulation time: 00 hr 17 min 44 sec)
Heartbeat CPU 0 instructions: 270000002 cycles: 78040134 heartbeat IPC: 1.788 cumulative IPC: 3.357 (Simulation time: 00 hr 18 min 40 sec)
Heartbeat CPU 0 instructions: 280000000 cycles: 86909475 heartbeat IPC: 1.127 cumulative IPC: 3.091 (Simulation time: 00 hr 21 min 10 sec)
Heartbeat CPU 0 instructions: 290000000 cycles: 94387896 heartbeat IPC: 1.337 cumulative IPC: 2.931 (Simulation time: 00 hr 23 min 17 sec)
Heartbeat CPU 0 instructions: 300000003 cycles: 99607060 heartbeat IPC: 1.916 cumulative IPC: 2.87 (Simulation time: 00 hr 25 min 06 sec)
Heartbeat CPU 0 instructions: 310000001 cycles: 108158981 heartbeat IPC: 1.169 cumulative IPC: 2.718 (Simulation time: 00 hr 27 min 26 sec)
Heartbeat CPU 0 instructions: 320000004 cycles: 112026620 heartbeat IPC: 2.586 cumulative IPC: 2.713 (Simulation time: 00 hr 28 min 14 sec)
Heartbeat CPU 0 instructions: 330000000 cycles: 115230292 heartbeat IPC: 3.121 cumulative IPC: 2.726 (Simulation time: 00 hr 28 min 58 sec)
Heartbeat CPU 0 instructions: 340000001 cycles: 118461965 heartbeat IPC: 3.094 cumulative IPC: 2.737 (Simulation time: 00 hr 29 min 41 sec)
Heartbeat CPU 0 instructions: 350000000 cycles: 121839857 heartbeat IPC: 2.96 cumulative IPC: 2.744 (Simulation time: 00 hr 30 min 26 sec)
Heartbeat CPU 0 instructions: 360000004 cycles: 125020735 heartbeat IPC: 3.144 cumulative IPC: 2.755 (Simulation time: 00 hr 31 min 10 sec)
Heartbeat CPU 0 instructions: 370000001 cycles: 128138470 heartbeat IPC: 3.207 cumulative IPC: 2.767 (Simulation time: 00 hr 31 min 53 sec)
Heartbeat CPU 0 instructions: 380000004 cycles: 131272645 heartbeat IPC: 3.191 cumulative IPC: 2.778 (Simulation time: 00 hr 32 min 36 sec)
Heartbeat CPU 0 instructions: 390000002 cycles: 134596881 heartbeat IPC: 3.008 cumulative IPC: 2.785 (Simulation time: 00 hr 33 min 21 sec)
Heartbeat CPU 0 instructions: 400000000 cycles: 137945017 heartbeat IPC: 2.987 cumulative IPC: 2.79 (Simulation time: 00 hr 34 min 05 sec)
Heartbeat CPU 0 instructions: 410000000 cycles: 144145714 heartbeat IPC: 1.613 cumulative IPC: 2.735 (Simulation time: 00 hr 35 min 04 sec)
Heartbeat CPU 0 instructions: 420000003 cycles: 153010490 heartbeat IPC: 1.128 cumulative IPC: 2.633 (Simulation time: 00 hr 36 min 20 sec)
Heartbeat CPU 0 instructions: 430000004 cycles: 158399399 heartbeat IPC: 1.856 cumulative IPC: 2.605 (Simulation time: 00 hr 37 min 18 sec)
Heartbeat CPU 0 instructions: 440000004 cycles: 163665889 heartbeat IPC: 1.899 cumulative IPC: 2.58 (Simulation time: 00 hr 38 min 15 sec)
Heartbeat CPU 0 instructions: 450000000 cycles: 168442041 heartbeat IPC: 2.094 cumulative IPC: 2.565 (Simulation time: 00 hr 39 min 09 sec)
Heartbeat CPU 0 instructions: 460000002 cycles: 176913604 heartbeat IPC: 1.18 cumulative IPC: 2.494 (Simulation time: 00 hr 40 min 22 sec)
Heartbeat CPU 0 instructions: 470000003 cycles: 184327889 heartbeat IPC: 1.349 cumulative IPC: 2.444 (Simulation time: 00 hr 41 min 30 sec)
Heartbeat CPU 0 instructions: 480000000 cycles: 187820011 heartbeat IPC: 2.864 cumulative IPC: 2.453 (Simulation time: 00 hr 42 min 15 sec)
Heartbeat CPU 0 instructions: 490000001 cycles: 191514440 heartbeat IPC: 2.707 cumulative IPC: 2.458 (Simulation time: 00 hr 43 min 01 sec)
Heartbeat CPU 0 instructions: 500000002 cycles: 195072360 heartbeat IPC: 2.811 cumulative IPC: 2.465 (Simulation time: 00 hr 43 min 46 sec)
Heartbeat CPU 0 instructions: 510000000 cycles: 198585075 heartbeat IPC: 2.847 cumulative IPC: 2.472 (Simulation time: 00 hr 44 min 31 sec)
Heartbeat CPU 0 instructions: 520000000 cycles: 202131945 heartbeat IPC: 2.819 cumulative IPC: 2.478 (Simulation time: 00 hr 45 min 16 sec)
Heartbeat CPU 0 instructions: 530000001 cycles: 211202607 heartbeat IPC: 1.102 cumulative IPC: 2.416 (Simulation time: 00 hr 46 min 28 sec)
Heartbeat CPU 0 instructions: 540000000 cycles: 219913328 heartbeat IPC: 1.148 cumulative IPC: 2.362 (Simulation time: 00 hr 47 min 40 sec)
Heartbeat CPU 0 instructions: 550000004 cycles: 230439859 heartbeat IPC: 0.95 cumulative IPC: 2.294 (Simulation time: 00 hr 49 min 00 sec)
Heartbeat CPU 0 instructions: 560000004 cycles: 234057346 heartbeat IPC: 2.764 cumulative IPC: 2.302 (Simulation time: 00 hr 49 min 41 sec)
Heartbeat CPU 0 instructions: 570000002 cycles: 236885342 heartbeat IPC: 3.536 cumulative IPC: 2.317 (Simulation time: 00 hr 50 min 19 sec)
Heartbeat CPU 0 instructions: 580000000 cycles: 239816763 heartbeat IPC: 3.411 cumulative IPC: 2.332 (Simulation time: 00 hr 50 min 57 sec)
Heartbeat CPU 0 instructions: 590000001 cycles: 242754120 heartbeat IPC: 3.404 cumulative IPC: 2.345 (Simulation time: 00 hr 51 min 34 sec)
Heartbeat CPU 0 instructions: 600000003 cycles: 245454619 heartbeat IPC: 3.703 cumulative IPC: 2.361 (Simulation time: 00 hr 52 min 08 sec)
Heartbeat CPU 0 instructions: 610000001 cycles: 248328451 heartbeat IPC: 3.48 cumulative IPC: 2.375 (Simulation time: 00 hr 52 min 42 sec)
Heartbeat CPU 0 instructions: 620000004 cycles: 251288535 heartbeat IPC: 3.378 cumulative IPC: 2.387 (Simulation time: 00 hr 53 min 15 sec)
Heartbeat CPU 0 instructions: 630000002 cycles: 254101594 heartbeat IPC: 3.555 cumulative IPC: 2.401 (Simulation time: 00 hr 53 min 45 sec)
Heartbeat CPU 0 instructions: 640000004 cycles: 257149768 heartbeat IPC: 3.281 cumulative IPC: 2.412 (Simulation time: 00 hr 54 min 11 sec)
Heartbeat CPU 0 instructions: 650000001 cycles: 259858644 heartbeat IPC: 3.692 cumulative IPC: 2.426 (Simulation time: 00 hr 54 min 33 sec)
Simulation finished CPU 0 instructions: 600000001 cycles: 247358583 cumulative IPC: 2.426 (Simulation time: 00 hr 54 min 33 sec)
Simulation complete CPU 0 instructions: 600000001 cycles: 247358583 cumulative IPC: 2.426 (Simulation time: 00 hr 54 min 33 sec)

ChampSim completed all CPUs

=== Simulation ===
CPU 0 runs traces/400.perlbench-50B.champsimtrace.xz
Region of Interest Statistics

CPU 0 cumulative IPC: 2.426 instructions: 600000001 cycles: 247358583
CPU 0 Branch Prediction Accuracy: 99.01% MPKI: 2.04 Average ROB Occupancy at Mispredict: 93.78
Branch type MPKI
BRANCH_DIRECT_JUMP: 0.0176
BRANCH_INDIRECT: 0.38
BRANCH_CONDITIONAL: 1.19
BRANCH_DIRECT_CALL: 0.0067
BRANCH_INDIRECT_CALL: 0.431
BRANCH_RETURN: 0.0161

LLC TOTAL        ACCESS:     887796 HIT:     362945 MISS:     524851
LLC LOAD         ACCESS:     376663 HIT:     149219 MISS:     227444
LLC RFO          ACCESS:      32691 HIT:      12067 MISS:      20624
LLC PREFETCH     ACCESS:     376663 HIT:     137601 MISS:     239062
LLC WRITE        ACCESS:      83629 HIT:      63564 MISS:      20065
LLC TRANSLATION  ACCESS:      18150 HIT:        494 MISS:      17656
LLC PREFETCH REQUESTED:     376663 ISSUED:     376663 USEFUL:      92538 USELESS:      78511
LLC AVERAGE MISS LATENCY: 603.3 cycles
cpu0_DTLB TOTAL        ACCESS:  133169417 HIT:  131818515 MISS:    1350902
cpu0_DTLB LOAD         ACCESS:  133169417 HIT:  131818515 MISS:    1350902
cpu0_DTLB RFO          ACCESS:          0 HIT:          0 MISS:          0
cpu0_DTLB PREFETCH     ACCESS:          0 HIT:          0 MISS:          0
cpu0_DTLB WRITE        ACCESS:          0 HIT:          0 MISS:          0
cpu0_DTLB TRANSLATION  ACCESS:          0 HIT:          0 MISS:          0
cpu0_DTLB PREFETCH REQUESTED:          0 ISSUED:          0 USEFUL:          0 USELESS:          0
cpu0_DTLB AVERAGE MISS LATENCY: 15.4 cycles
cpu0_ITLB TOTAL        ACCESS:    8990995 HIT:    8780608 MISS:     210387
cpu0_ITLB LOAD         ACCESS:    8990995 HIT:    8780608 MISS:     210387
cpu0_ITLB RFO          ACCESS:          0 HIT:          0 MISS:          0
cpu0_ITLB PREFETCH     ACCESS:          0 HIT:          0 MISS:          0
cpu0_ITLB WRITE        ACCESS:          0 HIT:          0 MISS:          0
cpu0_ITLB TRANSLATION  ACCESS:          0 HIT:          0 MISS:          0
cpu0_ITLB PREFETCH REQUESTED:          0 ISSUED:          0 USEFUL:          0 USELESS:          0
cpu0_ITLB AVERAGE MISS LATENCY: 3.484 cycles
cpu0_L1D TOTAL        ACCESS:  178249105 HIT:  175312250 MISS:    2936855
cpu0_L1D LOAD         ACCESS:   92731420 HIT:   90322718 MISS:    2408702
cpu0_L1D RFO          ACCESS:          0 HIT:          0 MISS:          0
cpu0_L1D PREFETCH     ACCESS:          0 HIT:          0 MISS:          0
cpu0_L1D WRITE        ACCESS:   85489145 HIT:   84987530 MISS:     501615
cpu0_L1D TRANSLATION  ACCESS:      28540 HIT:       2002 MISS:      26538
cpu0_L1D PREFETCH REQUESTED:          0 ISSUED:          0 USEFUL:          0 USELESS:          0
cpu0_L1D AVERAGE MISS LATENCY: 64.93 cycles
cpu0_L1I TOTAL        ACCESS:   10510646 HIT:    8611089 MISS:    1899557
cpu0_L1I LOAD         ACCESS:   10510646 HIT:    8611089 MISS:    1899557
cpu0_L1I RFO          ACCESS:          0 HIT:          0 MISS:          0
cpu0_L1I PREFETCH     ACCESS:          0 HIT:          0 MISS:          0
cpu0_L1I WRITE        ACCESS:          0 HIT:          0 MISS:          0
cpu0_L1I TRANSLATION  ACCESS:          0 HIT:          0 MISS:          0
cpu0_L1I PREFETCH REQUESTED:          0 ISSUED:          0 USEFUL:          0 USELESS:          0
cpu0_L1I AVERAGE MISS LATENCY: 9.449 cycles
cpu0_L2C TOTAL        ACCESS:    3235902 HIT:    2807468 MISS:     428434
cpu0_L2C LOAD         ACCESS:    2709097 HIT:    2332434 MISS:     376663
cpu0_L2C RFO          ACCESS:     135504 HIT:     102813 MISS:      32691
cpu0_L2C PREFETCH     ACCESS:          0 HIT:          0 MISS:          0
cpu0_L2C WRITE        ACCESS:     364848 HIT:     363918 MISS:        930
cpu0_L2C TRANSLATION  ACCESS:      26453 HIT:       8303 MISS:      18150
cpu0_L2C PREFETCH REQUESTED:          0 ISSUED:          0 USEFUL:          0 USELESS:          0
cpu0_L2C AVERAGE MISS LATENCY: 451.8 cycles
cpu0_STLB TOTAL        ACCESS:    1009805 HIT:     983114 MISS:      26691
cpu0_STLB LOAD         ACCESS:    1009805 HIT:     983114 MISS:      26691
cpu0_STLB RFO          ACCESS:          0 HIT:          0 MISS:          0
cpu0_STLB PREFETCH     ACCESS:          0 HIT:          0 MISS:          0
cpu0_STLB WRITE        ACCESS:          0 HIT:          0 MISS:          0
cpu0_STLB TRANSLATION  ACCESS:          0 HIT:          0 MISS:          0
cpu0_STLB PREFETCH REQUESTED:          0 ISSUED:          0 USEFUL:          0 USELESS:          0
cpu0_STLB AVERAGE MISS LATENCY: 589.4 cycles

DRAM Statistics

Channel 0 RQ ROW_BUFFER_HIT:      87760
  ROW_BUFFER_MISS:     330363
 AVG DBUS CONGESTED CYCLE: 3.895
WQ ROW_BUFFER_HIT: Channel 0 
  ROW_BUFFER_MISS:       5081
  FULL:      49194
Final OPTGen Hits: 5008
Final OPTGen Access: 6841
Final OPTGEN Hit Rate: 73.2057
