WARNING: physical memory size is smaller than virtual memory size.

*** ChampSim Multicore Out-of-Order Simulator ***
Warmup Instructions: 50000000
Simulation Instructions: 600000000
Number of CPUs: 1
Page size: 4096

Off-chip DRAM Size: 4 GiB Channels: 1 Width: 64-bit Data Race: 3200 MT/s
Heartbeat CPU 0 instructions: 10000001 cycles: 2500319 heartbeat IPC: 3.999 cumulative IPC: 3.999 (Simulation time: 00 hr 04 min 06 sec)
Heartbeat CPU 0 instructions: 20000002 cycles: 5037096 heartbeat IPC: 3.942 cumulative IPC: 3.971 (Simulation time: 00 hr 07 min 52 sec)
Heartbeat CPU 0 instructions: 30000002 cycles: 7537096 heartbeat IPC: 4 cumulative IPC: 3.98 (Simulation time: 00 hr 11 min 16 sec)
Heartbeat CPU 0 instructions: 40000002 cycles: 10037096 heartbeat IPC: 4 cumulative IPC: 3.985 (Simulation time: 00 hr 14 min 56 sec)
Heartbeat CPU 0 instructions: 50000002 cycles: 12537096 heartbeat IPC: 4 cumulative IPC: 3.988 (Simulation time: 00 hr 18 min 23 sec)
Warmup finished CPU 0 instructions: 50000002 cycles: 12537097 cumulative IPC: 3.988 (Simulation time: 00 hr 18 min 23 sec)
Warmup complete CPU 0 instructions: 50000002 cycles: 12537097 cumulative IPC: 3.988 (Simulation time: 00 hr 18 min 23 sec)
Heartbeat CPU 0 instructions: 60000000 cycles: 17715450 heartbeat IPC: 1.931 cumulative IPC: 1.931 (Simulation time: 00 hr 23 min 55 sec)
Heartbeat CPU 0 instructions: 70000002 cycles: 22618220 heartbeat IPC: 2.04 cumulative IPC: 1.984 (Simulation time: 00 hr 29 min 08 sec)
Heartbeat CPU 0 instructions: 80000001 cycles: 27981534 heartbeat IPC: 1.865 cumulative IPC: 1.942 (Simulation time: 00 hr 34 min 47 sec)
Heartbeat CPU 0 instructions: 90000001 cycles: 32850705 heartbeat IPC: 2.054 cumulative IPC: 1.969 (Simulation time: 00 hr 39 min 54 sec)
Heartbeat CPU 0 instructions: 100000000 cycles: 37970406 heartbeat IPC: 1.953 cumulative IPC: 1.966 (Simulation time: 00 hr 45 min 11 sec)
Heartbeat CPU 0 instructions: 110000000 cycles: 42854635 heartbeat IPC: 2.047 cumulative IPC: 1.979 (Simulation time: 00 hr 50 min 23 sec)
Heartbeat CPU 0 instructions: 120000001 cycles: 48056917 heartbeat IPC: 1.922 cumulative IPC: 1.971 (Simulation time: 00 hr 55 min 47 sec)
Heartbeat CPU 0 instructions: 130000001 cycles: 53212518 heartbeat IPC: 1.94 cumulative IPC: 1.967 (Simulation time: 01 hr 01 min 11 sec)
Heartbeat CPU 0 instructions: 140000001 cycles: 58533387 heartbeat IPC: 1.879 cumulative IPC: 1.957 (Simulation time: 01 hr 06 min 35 sec)
Heartbeat CPU 0 instructions: 150000001 cycles: 63856826 heartbeat IPC: 1.878 cumulative IPC: 1.949 (Simulation time: 01 hr 12 min 01 sec)
Heartbeat CPU 0 instructions: 160000004 cycles: 69071883 heartbeat IPC: 1.918 cumulative IPC: 1.946 (Simulation time: 01 hr 17 min 23 sec)
Heartbeat CPU 0 instructions: 170000000 cycles: 79119416 heartbeat IPC: 0.9953 cumulative IPC: 1.802 (Simulation time: 01 hr 26 min 02 sec)
Heartbeat CPU 0 instructions: 180000004 cycles: 89719193 heartbeat IPC: 0.9434 cumulative IPC: 1.684 (Simulation time: 01 hr 35 min 11 sec)
Heartbeat CPU 0 instructions: 190000001 cycles: 100195012 heartbeat IPC: 0.9546 cumulative IPC: 1.597 (Simulation time: 01 hr 44 min 11 sec)
Heartbeat CPU 0 instructions: 200000003 cycles: 104975130 heartbeat IPC: 2.092 cumulative IPC: 1.623 (Simulation time: 01 hr 49 min 21 sec)
Heartbeat CPU 0 instructions: 210000001 cycles: 109902559 heartbeat IPC: 2.029 cumulative IPC: 1.643 (Simulation time: 01 hr 54 min 34 sec)
Heartbeat CPU 0 instructions: 220000000 cycles: 114731676 heartbeat IPC: 2.071 cumulative IPC: 1.663 (Simulation time: 01 hr 59 min 46 sec)
Heartbeat CPU 0 instructions: 230000002 cycles: 120053426 heartbeat IPC: 1.879 cumulative IPC: 1.674 (Simulation time: 02 hr 05 min 10 sec)
Heartbeat CPU 0 instructions: 240000000 cycles: 124903301 heartbeat IPC: 2.062 cumulative IPC: 1.691 (Simulation time: 02 hr 10 min 22 sec)
Heartbeat CPU 0 instructions: 250000000 cycles: 130052627 heartbeat IPC: 1.942 cumulative IPC: 1.702 (Simulation time: 02 hr 15 min 40 sec)
Heartbeat CPU 0 instructions: 260000000 cycles: 135070095 heartbeat IPC: 1.993 cumulative IPC: 1.714 (Simulation time: 02 hr 20 min 56 sec)
Heartbeat CPU 0 instructions: 270000002 cycles: 139954835 heartbeat IPC: 2.047 cumulative IPC: 1.727 (Simulation time: 02 hr 26 min 13 sec)
Heartbeat CPU 0 instructions: 280000002 cycles: 144859050 heartbeat IPC: 2.039 cumulative IPC: 1.738 (Simulation time: 02 hr 31 min 26 sec)
Heartbeat CPU 0 instructions: 290000001 cycles: 150226570 heartbeat IPC: 1.863 cumulative IPC: 1.743 (Simulation time: 02 hr 36 min 53 sec)
Heartbeat CPU 0 instructions: 300000003 cycles: 155283120 heartbeat IPC: 1.978 cumulative IPC: 1.751 (Simulation time: 02 hr 42 min 12 sec)
Heartbeat CPU 0 instructions: 310000001 cycles: 160585567 heartbeat IPC: 1.886 cumulative IPC: 1.756 (Simulation time: 02 hr 47 min 35 sec)
Heartbeat CPU 0 instructions: 320000003 cycles: 165791318 heartbeat IPC: 1.921 cumulative IPC: 1.762 (Simulation time: 02 hr 52 min 58 sec)
Heartbeat CPU 0 instructions: 330000003 cycles: 171093075 heartbeat IPC: 1.886 cumulative IPC: 1.766 (Simulation time: 02 hr 58 min 26 sec)
Heartbeat CPU 0 instructions: 340000000 cycles: 181243583 heartbeat IPC: 0.9852 cumulative IPC: 1.719 (Simulation time: 03 hr 07 min 03 sec)
Heartbeat CPU 0 instructions: 350000000 cycles: 192309585 heartbeat IPC: 0.9037 cumulative IPC: 1.669 (Simulation time: 03 hr 16 min 26 sec)
Heartbeat CPU 0 instructions: 360000004 cycles: 202844249 heartbeat IPC: 0.9492 cumulative IPC: 1.629 (Simulation time: 03 hr 25 min 28 sec)
Heartbeat CPU 0 instructions: 370000000 cycles: 207252132 heartbeat IPC: 2.269 cumulative IPC: 1.643 (Simulation time: 03 hr 30 min 25 sec)
Heartbeat CPU 0 instructions: 380000001 cycles: 212186891 heartbeat IPC: 2.026 cumulative IPC: 1.653 (Simulation time: 03 hr 35 min 41 sec)
Heartbeat CPU 0 instructions: 390000002 cycles: 217008927 heartbeat IPC: 2.074 cumulative IPC: 1.663 (Simulation time: 03 hr 40 min 52 sec)
Heartbeat CPU 0 instructions: 400000004 cycles: 221941777 heartbeat IPC: 2.027 cumulative IPC: 1.671 (Simulation time: 03 hr 46 min 06 sec)
Heartbeat CPU 0 instructions: 410000000 cycles: 226667028 heartbeat IPC: 2.116 cumulative IPC: 1.681 (Simulation time: 03 hr 51 min 09 sec)
Heartbeat CPU 0 instructions: 420000000 cycles: 231839194 heartbeat IPC: 1.933 cumulative IPC: 1.687 (Simulation time: 03 hr 56 min 33 sec)
Heartbeat CPU 0 instructions: 430000001 cycles: 236302114 heartbeat IPC: 2.241 cumulative IPC: 1.698 (Simulation time: 04 hr 01 min 33 sec)
Heartbeat CPU 0 instructions: 440000000 cycles: 241640459 heartbeat IPC: 1.873 cumulative IPC: 1.702 (Simulation time: 04 hr 07 min 02 sec)
Heartbeat CPU 0 instructions: 450000002 cycles: 246302984 heartbeat IPC: 2.145 cumulative IPC: 1.711 (Simulation time: 04 hr 12 min 04 sec)
Heartbeat CPU 0 instructions: 460000000 cycles: 251086491 heartbeat IPC: 2.091 cumulative IPC: 1.719 (Simulation time: 04 hr 17 min 10 sec)
Heartbeat CPU 0 instructions: 470000000 cycles: 256061330 heartbeat IPC: 2.01 cumulative IPC: 1.725 (Simulation time: 04 hr 22 min 23 sec)
Heartbeat CPU 0 instructions: 480000003 cycles: 260841380 heartbeat IPC: 2.092 cumulative IPC: 1.732 (Simulation time: 04 hr 27 min 34 sec)
Heartbeat CPU 0 instructions: 490000000 cycles: 265442206 heartbeat IPC: 2.174 cumulative IPC: 1.74 (Simulation time: 04 hr 32 min 33 sec)
Heartbeat CPU 0 instructions: 500000000 cycles: 270460623 heartbeat IPC: 1.993 cumulative IPC: 1.745 (Simulation time: 04 hr 37 min 49 sec)
Heartbeat CPU 0 instructions: 510000003 cycles: 276090619 heartbeat IPC: 1.776 cumulative IPC: 1.745 (Simulation time: 04 hr 43 min 25 sec)
Heartbeat CPU 0 instructions: 520000001 cycles: 280771906 heartbeat IPC: 2.136 cumulative IPC: 1.752 (Simulation time: 04 hr 48 min 33 sec)
Heartbeat CPU 0 instructions: 530000002 cycles: 285904304 heartbeat IPC: 1.948 cumulative IPC: 1.756 (Simulation time: 04 hr 53 min 54 sec)
Heartbeat CPU 0 instructions: 540000000 cycles: 291016415 heartbeat IPC: 1.956 cumulative IPC: 1.76 (Simulation time: 04 hr 59 min 18 sec)
Heartbeat CPU 0 instructions: 550000001 cycles: 295823020 heartbeat IPC: 2.08 cumulative IPC: 1.765 (Simulation time: 05 hr 04 min 29 sec)
Heartbeat CPU 0 instructions: 560000000 cycles: 301025065 heartbeat IPC: 1.922 cumulative IPC: 1.768 (Simulation time: 05 hr 09 min 52 sec)
Heartbeat CPU 0 instructions: 570000004 cycles: 308082529 heartbeat IPC: 1.417 cumulative IPC: 1.759 (Simulation time: 05 hr 16 min 31 sec)
Heartbeat CPU 0 instructions: 580000003 cycles: 319452545 heartbeat IPC: 0.8795 cumulative IPC: 1.727 (Simulation time: 05 hr 26 min 30 sec)
Heartbeat CPU 0 instructions: 590000002 cycles: 332429328 heartbeat IPC: 0.7706 cumulative IPC: 1.688 (Simulation time: 05 hr 37 min 10 sec)
Heartbeat CPU 0 instructions: 600000000 cycles: 337026086 heartbeat IPC: 2.175 cumulative IPC: 1.695 (Simulation time: 05 hr 42 min 35 sec)
Heartbeat CPU 0 instructions: 610000002 cycles: 341516170 heartbeat IPC: 2.227 cumulative IPC: 1.702 (Simulation time: 05 hr 47 min 46 sec)
Heartbeat CPU 0 instructions: 620000000 cycles: 346323341 heartbeat IPC: 2.08 cumulative IPC: 1.708 (Simulation time: 05 hr 53 min 10 sec)
Heartbeat CPU 0 instructions: 630000002 cycles: 351409883 heartbeat IPC: 1.966 cumulative IPC: 1.712 (Simulation time: 05 hr 58 min 40 sec)
Heartbeat CPU 0 instructions: 640000001 cycles: 356262171 heartbeat IPC: 2.061 cumulative IPC: 1.716 (Simulation time: 06 hr 03 min 59 sec)
Heartbeat CPU 0 instructions: 650000000 cycles: 360813818 heartbeat IPC: 2.197 cumulative IPC: 1.723 (Simulation time: 06 hr 08 min 58 sec)
Simulation finished CPU 0 instructions: 600000001 cycles: 348276723 cumulative IPC: 1.723 (Simulation time: 06 hr 08 min 58 sec)
Simulation complete CPU 0 instructions: 600000001 cycles: 348276723 cumulative IPC: 1.723 (Simulation time: 06 hr 08 min 58 sec)

ChampSim completed all CPUs

=== Simulation ===
CPU 0 runs traces/400.perlbench-41B.champsimtrace.xz
Region of Interest Statistics

CPU 0 cumulative IPC: 1.723 instructions: 600000001 cycles: 348276723
CPU 0 Branch Prediction Accuracy: 93.95% MPKI: 12.5 Average ROB Occupancy at Mispredict: 29.47
Branch type MPKI
BRANCH_DIRECT_JUMP: 0.0123
BRANCH_INDIRECT: 0.323
BRANCH_CONDITIONAL: 12
BRANCH_DIRECT_CALL: 0.0043
BRANCH_INDIRECT_CALL: 0.2
BRANCH_RETURN: 0.00828

LLC TOTAL        ACCESS:     721868 HIT:     290241 MISS:     431627
LLC LOAD         ACCESS:     308401 HIT:     115042 MISS:     193359
LLC RFO          ACCESS:      25189 HIT:       7595 MISS:      17594
LLC PREFETCH     ACCESS:     308401 HIT:     102097 MISS:     206304
LLC WRITE        ACCESS:      64140 HIT:      61332 MISS:       2808
LLC TRANSLATION  ACCESS:      15737 HIT:       4175 MISS:      11562
LLC PREFETCH REQUESTED:     308401 ISSUED:     308401 USEFUL:      72570 USELESS:      82659
LLC AVERAGE MISS LATENCY: 580.2 cycles
cpu0_DTLB TOTAL        ACCESS:  153668335 HIT:  152991920 MISS:     676415
cpu0_DTLB LOAD         ACCESS:  153668335 HIT:  152991920 MISS:     676415
cpu0_DTLB RFO          ACCESS:          0 HIT:          0 MISS:          0
cpu0_DTLB PREFETCH     ACCESS:          0 HIT:          0 MISS:          0
cpu0_DTLB WRITE        ACCESS:          0 HIT:          0 MISS:          0
cpu0_DTLB TRANSLATION  ACCESS:          0 HIT:          0 MISS:          0
cpu0_DTLB PREFETCH REQUESTED:          0 ISSUED:          0 USEFUL:          0 USELESS:          0
cpu0_DTLB AVERAGE MISS LATENCY: 18.23 cycles
cpu0_ITLB TOTAL        ACCESS:    4835464 HIT:    4777419 MISS:      58045
cpu0_ITLB LOAD         ACCESS:    4835464 HIT:    4777419 MISS:      58045
cpu0_ITLB RFO          ACCESS:          0 HIT:          0 MISS:          0
cpu0_ITLB PREFETCH     ACCESS:          0 HIT:          0 MISS:          0
cpu0_ITLB WRITE        ACCESS:          0 HIT:          0 MISS:          0
cpu0_ITLB TRANSLATION  ACCESS:          0 HIT:          0 MISS:          0
cpu0_ITLB PREFETCH REQUESTED:          0 ISSUED:          0 USEFUL:          0 USELESS:          0
cpu0_ITLB AVERAGE MISS LATENCY: 8.128 cycles
cpu0_L1D TOTAL        ACCESS:  200301666 HIT:  198962443 MISS:    1339223
cpu0_L1D LOAD         ACCESS:  117057983 HIT:  116032044 MISS:    1025939
cpu0_L1D RFO          ACCESS:          0 HIT:          0 MISS:          0
cpu0_L1D PREFETCH     ACCESS:          0 HIT:          0 MISS:          0
cpu0_L1D WRITE        ACCESS:   83219220 HIT:   82928826 MISS:     290394
cpu0_L1D TRANSLATION  ACCESS:      24463 HIT:       1573 MISS:      22890
cpu0_L1D PREFETCH REQUESTED:          0 ISSUED:          0 USEFUL:          0 USELESS:          0
cpu0_L1D AVERAGE MISS LATENCY: 108.2 cycles
cpu0_L1I TOTAL        ACCESS:    5577801 HIT:    4815709 MISS:     762092
cpu0_L1I LOAD         ACCESS:    5577801 HIT:    4815709 MISS:     762092
cpu0_L1I RFO          ACCESS:          0 HIT:          0 MISS:          0
cpu0_L1I PREFETCH     ACCESS:          0 HIT:          0 MISS:          0
cpu0_L1I WRITE        ACCESS:          0 HIT:          0 MISS:          0
cpu0_L1I TRANSLATION  ACCESS:          0 HIT:          0 MISS:          0
cpu0_L1I PREFETCH REQUESTED:          0 ISSUED:          0 USEFUL:          0 USELESS:          0
cpu0_L1I AVERAGE MISS LATENCY: 12.88 cycles
cpu0_L2C TOTAL        ACCESS:    1382457 HIT:    1032268 MISS:     350189
cpu0_L2C LOAD         ACCESS:    1125662 HIT:     817261 MISS:     308401
cpu0_L2C RFO          ACCESS:      63890 HIT:      38701 MISS:      25189
cpu0_L2C PREFETCH     ACCESS:          0 HIT:          0 MISS:          0
cpu0_L2C WRITE        ACCESS:     170099 HIT:     169237 MISS:        862
cpu0_L2C TRANSLATION  ACCESS:      22806 HIT:       7069 MISS:      15737
cpu0_L2C PREFETCH REQUESTED:          0 ISSUED:          0 USEFUL:          0 USELESS:          0
cpu0_L2C AVERAGE MISS LATENCY: 419.6 cycles
cpu0_STLB TOTAL        ACCESS:     505035 HIT:     482246 MISS:      22789
cpu0_STLB LOAD         ACCESS:     505035 HIT:     482246 MISS:      22789
cpu0_STLB RFO          ACCESS:          0 HIT:          0 MISS:          0
cpu0_STLB PREFETCH     ACCESS:          0 HIT:          0 MISS:          0
cpu0_STLB WRITE        ACCESS:          0 HIT:          0 MISS:          0
cpu0_STLB TRANSLATION  ACCESS:          0 HIT:          0 MISS:          0
cpu0_STLB PREFETCH REQUESTED:          0 ISSUED:          0 USEFUL:          0 USELESS:          0
cpu0_STLB AVERAGE MISS LATENCY: 424.2 cycles

DRAM Statistics

Channel 0 RQ ROW_BUFFER_HIT:      63510
  ROW_BUFFER_MISS:     301283
 AVG DBUS CONGESTED CYCLE: 3.873
WQ ROW_BUFFER_HIT: Channel 0 
  ROW_BUFFER_MISS:       5495
  FULL:      41358
