WARNING: physical memory size is smaller than virtual memory size.

*** ChampSim Multicore Out-of-Order Simulator ***
Warmup Instructions: 50000000
Simulation Instructions: 600000000
Number of CPUs: 1
Page size: 4096

Off-chip DRAM Size: 4 GiB Channels: 1 Width: 64-bit Data Race: 3200 MT/s
Heartbeat CPU 0 instructions: 10000000 cycles: 2500061 heartbeat IPC: 4 cumulative IPC: 4 (Simulation time: 00 hr 00 min 35 sec)
Heartbeat CPU 0 instructions: 20000000 cycles: 5000061 heartbeat IPC: 4 cumulative IPC: 4 (Simulation time: 00 hr 01 min 10 sec)
Heartbeat CPU 0 instructions: 30000000 cycles: 7500061 heartbeat IPC: 4 cumulative IPC: 4 (Simulation time: 00 hr 01 min 44 sec)
Heartbeat CPU 0 instructions: 40000000 cycles: 10000061 heartbeat IPC: 4 cumulative IPC: 4 (Simulation time: 00 hr 02 min 19 sec)
Heartbeat CPU 0 instructions: 50000000 cycles: 12500061 heartbeat IPC: 4 cumulative IPC: 4 (Simulation time: 00 hr 02 min 52 sec)
Warmup finished CPU 0 instructions: 50000000 cycles: 12500062 cumulative IPC: 4 (Simulation time: 00 hr 02 min 52 sec)
Warmup complete CPU 0 instructions: 50000000 cycles: 12500062 cumulative IPC: 4 (Simulation time: 00 hr 02 min 52 sec)
Heartbeat CPU 0 instructions: 60000002 cycles: 16435171 heartbeat IPC: 2.541 cumulative IPC: 2.541 (Simulation time: 00 hr 03 min 34 sec)
Heartbeat CPU 0 instructions: 70000003 cycles: 20748499 heartbeat IPC: 2.318 cumulative IPC: 2.425 (Simulation time: 00 hr 04 min 15 sec)
Heartbeat CPU 0 instructions: 80000003 cycles: 25211542 heartbeat IPC: 2.241 cumulative IPC: 2.36 (Simulation time: 00 hr 04 min 57 sec)
Heartbeat CPU 0 instructions: 90000000 cycles: 28901427 heartbeat IPC: 2.71 cumulative IPC: 2.439 (Simulation time: 00 hr 05 min 35 sec)
Heartbeat CPU 0 instructions: 100000003 cycles: 32794853 heartbeat IPC: 2.568 cumulative IPC: 2.464 (Simulation time: 00 hr 06 min 13 sec)
Heartbeat CPU 0 instructions: 110000002 cycles: 36885725 heartbeat IPC: 2.444 cumulative IPC: 2.46 (Simulation time: 00 hr 06 min 52 sec)
Heartbeat CPU 0 instructions: 120000001 cycles: 40598644 heartbeat IPC: 2.693 cumulative IPC: 2.491 (Simulation time: 00 hr 07 min 30 sec)
Heartbeat CPU 0 instructions: 130000003 cycles: 44363209 heartbeat IPC: 2.656 cumulative IPC: 2.511 (Simulation time: 00 hr 08 min 09 sec)
Heartbeat CPU 0 instructions: 140000002 cycles: 48488199 heartbeat IPC: 2.424 cumulative IPC: 2.501 (Simulation time: 00 hr 08 min 49 sec)
Heartbeat CPU 0 instructions: 150000001 cycles: 52532064 heartbeat IPC: 2.473 cumulative IPC: 2.498 (Simulation time: 00 hr 09 min 29 sec)
Heartbeat CPU 0 instructions: 160000000 cycles: 56181064 heartbeat IPC: 2.74 cumulative IPC: 2.518 (Simulation time: 00 hr 10 min 07 sec)
Heartbeat CPU 0 instructions: 170000001 cycles: 60346253 heartbeat IPC: 2.401 cumulative IPC: 2.508 (Simulation time: 00 hr 10 min 47 sec)
Heartbeat CPU 0 instructions: 180000001 cycles: 63801912 heartbeat IPC: 2.894 cumulative IPC: 2.534 (Simulation time: 00 hr 11 min 24 sec)
Heartbeat CPU 0 instructions: 190000002 cycles: 67379597 heartbeat IPC: 2.795 cumulative IPC: 2.551 (Simulation time: 00 hr 12 min 03 sec)
Heartbeat CPU 0 instructions: 200000002 cycles: 71149827 heartbeat IPC: 2.652 cumulative IPC: 2.558 (Simulation time: 00 hr 12 min 42 sec)
Heartbeat CPU 0 instructions: 210000000 cycles: 74784883 heartbeat IPC: 2.751 cumulative IPC: 2.569 (Simulation time: 00 hr 13 min 20 sec)
Heartbeat CPU 0 instructions: 220000001 cycles: 78653338 heartbeat IPC: 2.585 cumulative IPC: 2.57 (Simulation time: 00 hr 13 min 59 sec)
Heartbeat CPU 0 instructions: 230000002 cycles: 82489975 heartbeat IPC: 2.606 cumulative IPC: 2.572 (Simulation time: 00 hr 14 min 38 sec)
Heartbeat CPU 0 instructions: 240000001 cycles: 86692804 heartbeat IPC: 2.379 cumulative IPC: 2.561 (Simulation time: 00 hr 15 min 18 sec)
Heartbeat CPU 0 instructions: 250000003 cycles: 91257220 heartbeat IPC: 2.191 cumulative IPC: 2.539 (Simulation time: 00 hr 15 min 58 sec)
Heartbeat CPU 0 instructions: 260000000 cycles: 95054971 heartbeat IPC: 2.633 cumulative IPC: 2.544 (Simulation time: 00 hr 16 min 37 sec)
Heartbeat CPU 0 instructions: 270000003 cycles: 101853589 heartbeat IPC: 1.471 cumulative IPC: 2.462 (Simulation time: 00 hr 17 min 30 sec)
Heartbeat CPU 0 instructions: 280000000 cycles: 112559204 heartbeat IPC: 0.9341 cumulative IPC: 2.299 (Simulation time: 00 hr 18 min 44 sec)
Heartbeat CPU 0 instructions: 290000000 cycles: 122146295 heartbeat IPC: 1.043 cumulative IPC: 2.189 (Simulation time: 00 hr 20 min 54 sec)
Heartbeat CPU 0 instructions: 300000003 cycles: 129470366 heartbeat IPC: 1.365 cumulative IPC: 2.137 (Simulation time: 00 hr 22 min 45 sec)
Heartbeat CPU 0 instructions: 310000004 cycles: 140541367 heartbeat IPC: 0.9033 cumulative IPC: 2.031 (Simulation time: 00 hr 25 min 14 sec)
Heartbeat CPU 0 instructions: 320000004 cycles: 145582126 heartbeat IPC: 1.984 cumulative IPC: 2.029 (Simulation time: 00 hr 26 min 43 sec)
Heartbeat CPU 0 instructions: 330000000 cycles: 149663156 heartbeat IPC: 2.45 cumulative IPC: 2.041 (Simulation time: 00 hr 27 min 52 sec)
Heartbeat CPU 0 instructions: 340000001 cycles: 153997522 heartbeat IPC: 2.307 cumulative IPC: 2.05 (Simulation time: 00 hr 28 min 34 sec)
Heartbeat CPU 0 instructions: 350000004 cycles: 158451893 heartbeat IPC: 2.245 cumulative IPC: 2.055 (Simulation time: 00 hr 29 min 16 sec)
Heartbeat CPU 0 instructions: 360000003 cycles: 162595158 heartbeat IPC: 2.414 cumulative IPC: 2.065 (Simulation time: 00 hr 29 min 57 sec)
Heartbeat CPU 0 instructions: 370000001 cycles: 166645888 heartbeat IPC: 2.469 cumulative IPC: 2.076 (Simulation time: 00 hr 30 min 38 sec)
Heartbeat CPU 0 instructions: 380000004 cycles: 170549437 heartbeat IPC: 2.562 cumulative IPC: 2.088 (Simulation time: 00 hr 31 min 18 sec)
Heartbeat CPU 0 instructions: 390000002 cycles: 174676966 heartbeat IPC: 2.423 cumulative IPC: 2.096 (Simulation time: 00 hr 31 min 59 sec)
Heartbeat CPU 0 instructions: 400000000 cycles: 179055114 heartbeat IPC: 2.284 cumulative IPC: 2.101 (Simulation time: 00 hr 32 min 41 sec)
Heartbeat CPU 0 instructions: 410000000 cycles: 186666728 heartbeat IPC: 1.314 cumulative IPC: 2.067 (Simulation time: 00 hr 33 min 40 sec)
Heartbeat CPU 0 instructions: 420000003 cycles: 197786535 heartbeat IPC: 0.8993 cumulative IPC: 1.997 (Simulation time: 00 hr 34 min 56 sec)
Heartbeat CPU 0 instructions: 430000000 cycles: 205245933 heartbeat IPC: 1.341 cumulative IPC: 1.972 (Simulation time: 00 hr 35 min 56 sec)
Heartbeat CPU 0 instructions: 440000004 cycles: 212145041 heartbeat IPC: 1.449 cumulative IPC: 1.953 (Simulation time: 00 hr 36 min 54 sec)
Heartbeat CPU 0 instructions: 450000000 cycles: 218830593 heartbeat IPC: 1.496 cumulative IPC: 1.939 (Simulation time: 00 hr 37 min 49 sec)
Heartbeat CPU 0 instructions: 460000002 cycles: 229683491 heartbeat IPC: 0.9214 cumulative IPC: 1.888 (Simulation time: 00 hr 39 min 05 sec)
Heartbeat CPU 0 instructions: 470000003 cycles: 239094214 heartbeat IPC: 1.063 cumulative IPC: 1.854 (Simulation time: 00 hr 40 min 14 sec)
Heartbeat CPU 0 instructions: 480000003 cycles: 243431593 heartbeat IPC: 2.306 cumulative IPC: 1.862 (Simulation time: 00 hr 40 min 57 sec)
Heartbeat CPU 0 instructions: 490000001 cycles: 248141965 heartbeat IPC: 2.123 cumulative IPC: 1.867 (Simulation time: 00 hr 41 min 41 sec)
Heartbeat CPU 0 instructions: 500000002 cycles: 252621381 heartbeat IPC: 2.232 cumulative IPC: 1.874 (Simulation time: 00 hr 42 min 24 sec)
Heartbeat CPU 0 instructions: 510000000 cycles: 256894004 heartbeat IPC: 2.34 cumulative IPC: 1.882 (Simulation time: 00 hr 43 min 06 sec)
Heartbeat CPU 0 instructions: 520000000 cycles: 261336721 heartbeat IPC: 2.251 cumulative IPC: 1.889 (Simulation time: 00 hr 43 min 48 sec)
Heartbeat CPU 0 instructions: 530000001 cycles: 272756988 heartbeat IPC: 0.8756 cumulative IPC: 1.844 (Simulation time: 00 hr 45 min 04 sec)
Heartbeat CPU 0 instructions: 540000000 cycles: 283979898 heartbeat IPC: 0.891 cumulative IPC: 1.805 (Simulation time: 00 hr 46 min 20 sec)
Heartbeat CPU 0 instructions: 550000004 cycles: 296706118 heartbeat IPC: 0.7858 cumulative IPC: 1.759 (Simulation time: 00 hr 47 min 40 sec)
Heartbeat CPU 0 instructions: 560000004 cycles: 300975225 heartbeat IPC: 2.342 cumulative IPC: 1.768 (Simulation time: 00 hr 48 min 20 sec)
Heartbeat CPU 0 instructions: 570000001 cycles: 304106172 heartbeat IPC: 3.194 cumulative IPC: 1.783 (Simulation time: 00 hr 48 min 55 sec)
Heartbeat CPU 0 instructions: 580000003 cycles: 307650045 heartbeat IPC: 2.822 cumulative IPC: 1.796 (Simulation time: 00 hr 49 min 30 sec)
Heartbeat CPU 0 instructions: 590000002 cycles: 311277543 heartbeat IPC: 2.757 cumulative IPC: 1.807 (Simulation time: 00 hr 50 min 05 sec)
Heartbeat CPU 0 instructions: 600000003 cycles: 314345848 heartbeat IPC: 3.259 cumulative IPC: 1.822 (Simulation time: 00 hr 50 min 39 sec)
Heartbeat CPU 0 instructions: 610000001 cycles: 317857970 heartbeat IPC: 2.847 cumulative IPC: 1.834 (Simulation time: 00 hr 51 min 14 sec)
Heartbeat CPU 0 instructions: 620000000 cycles: 321877723 heartbeat IPC: 2.488 cumulative IPC: 1.842 (Simulation time: 00 hr 51 min 49 sec)
Heartbeat CPU 0 instructions: 630000002 cycles: 325244106 heartbeat IPC: 2.971 cumulative IPC: 1.855 (Simulation time: 00 hr 52 min 20 sec)
Heartbeat CPU 0 instructions: 640000004 cycles: 329253981 heartbeat IPC: 2.494 cumulative IPC: 1.863 (Simulation time: 00 hr 52 min 53 sec)
Heartbeat CPU 0 instructions: 650000001 cycles: 333074096 heartbeat IPC: 2.618 cumulative IPC: 1.872 (Simulation time: 00 hr 53 min 25 sec)
Simulation finished CPU 0 instructions: 600000001 cycles: 320574035 cumulative IPC: 1.872 (Simulation time: 00 hr 53 min 25 sec)
Simulation complete CPU 0 instructions: 600000001 cycles: 320574035 cumulative IPC: 1.872 (Simulation time: 00 hr 53 min 25 sec)

ChampSim completed all CPUs

=== Simulation ===
CPU 0 runs traces/400.perlbench-50B.champsimtrace.xz
Region of Interest Statistics

CPU 0 cumulative IPC: 1.872 instructions: 600000001 cycles: 320574035
CPU 0 Branch Prediction Accuracy: 96.2% MPKI: 7.839 Average ROB Occupancy at Mispredict: 43.22
Branch type MPKI
BRANCH_DIRECT_JUMP: 0.0176
BRANCH_INDIRECT: 0.38
BRANCH_CONDITIONAL: 6.99
BRANCH_DIRECT_CALL: 0.0067
BRANCH_INDIRECT_CALL: 0.431
BRANCH_RETURN: 0.0161

LLC TOTAL        ACCESS:     889840 HIT:     380227 MISS:     509613
LLC LOAD         ACCESS:     377373 HIT:     158596 MISS:     218777
LLC RFO          ACCESS:      32888 HIT:      11885 MISS:      21003
LLC PREFETCH     ACCESS:     377373 HIT:     145265 MISS:     232108
LLC WRITE        ACCESS:      84070 HIT:      64052 MISS:      20018
LLC TRANSLATION  ACCESS:      18136 HIT:        429 MISS:      17707
LLC PREFETCH REQUESTED:     377373 ISSUED:     377373 USEFUL:      94724 USELESS:      76961
LLC AVERAGE MISS LATENCY: 531.9 cycles
cpu0_DTLB TOTAL        ACCESS:  146473485 HIT:  145170832 MISS:    1302653
cpu0_DTLB LOAD         ACCESS:  146473485 HIT:  145170832 MISS:    1302653
cpu0_DTLB RFO          ACCESS:          0 HIT:          0 MISS:          0
cpu0_DTLB PREFETCH     ACCESS:          0 HIT:          0 MISS:          0
cpu0_DTLB WRITE        ACCESS:          0 HIT:          0 MISS:          0
cpu0_DTLB TRANSLATION  ACCESS:          0 HIT:          0 MISS:          0
cpu0_DTLB PREFETCH REQUESTED:          0 ISSUED:          0 USEFUL:          0 USELESS:          0
cpu0_DTLB AVERAGE MISS LATENCY: 15.22 cycles
cpu0_ITLB TOTAL        ACCESS:    8986438 HIT:    8801709 MISS:     184729
cpu0_ITLB LOAD         ACCESS:    8986438 HIT:    8801709 MISS:     184729
cpu0_ITLB RFO          ACCESS:          0 HIT:          0 MISS:          0
cpu0_ITLB PREFETCH     ACCESS:          0 HIT:          0 MISS:          0
cpu0_ITLB WRITE        ACCESS:          0 HIT:          0 MISS:          0
cpu0_ITLB TRANSLATION  ACCESS:          0 HIT:          0 MISS:          0
cpu0_ITLB PREFETCH REQUESTED:          0 ISSUED:          0 USEFUL:          0 USELESS:          0
cpu0_ITLB AVERAGE MISS LATENCY: 4.15 cycles
cpu0_L1D TOTAL        ACCESS:  193302280 HIT:  190457355 MISS:    2844925
cpu0_L1D LOAD         ACCESS:  107455358 HIT:  105116715 MISS:    2338643
cpu0_L1D RFO          ACCESS:          0 HIT:          0 MISS:          0
cpu0_L1D PREFETCH     ACCESS:          0 HIT:          0 MISS:          0
cpu0_L1D WRITE        ACCESS:   85818392 HIT:   85338633 MISS:     479759
cpu0_L1D TRANSLATION  ACCESS:      28530 HIT:       2007 MISS:      26523
cpu0_L1D PREFETCH REQUESTED:          0 ISSUED:          0 USEFUL:          0 USELESS:          0
cpu0_L1D AVERAGE MISS LATENCY: 58.97 cycles
cpu0_L1I TOTAL        ACCESS:   10420961 HIT:    8658235 MISS:    1762726
cpu0_L1I LOAD         ACCESS:   10420961 HIT:    8658235 MISS:    1762726
cpu0_L1I RFO          ACCESS:          0 HIT:          0 MISS:          0
cpu0_L1I PREFETCH     ACCESS:          0 HIT:          0 MISS:          0
cpu0_L1I WRITE        ACCESS:          0 HIT:          0 MISS:          0
cpu0_L1I TRANSLATION  ACCESS:          0 HIT:          0 MISS:          0
cpu0_L1I PREFETCH REQUESTED:          0 ISSUED:          0 USEFUL:          0 USELESS:          0
cpu0_L1I AVERAGE MISS LATENCY: 10.13 cycles
cpu0_L2C TOTAL        ACCESS:    3232329 HIT:    2803014 MISS:     429315
cpu0_L2C LOAD         ACCESS:    2710051 HIT:    2332678 MISS:     377373
cpu0_L2C RFO          ACCESS:     133269 HIT:     100381 MISS:      32888
cpu0_L2C PREFETCH     ACCESS:          0 HIT:          0 MISS:          0
cpu0_L2C WRITE        ACCESS:     362557 HIT:     361639 MISS:        918
cpu0_L2C TRANSLATION  ACCESS:      26452 HIT:       8316 MISS:      18136
cpu0_L2C PREFETCH REQUESTED:          0 ISSUED:          0 USEFUL:          0 USELESS:          0
cpu0_L2C AVERAGE MISS LATENCY: 381.4 cycles
cpu0_STLB TOTAL        ACCESS:    1008314 HIT:     981620 MISS:      26694
cpu0_STLB LOAD         ACCESS:    1008314 HIT:     981620 MISS:      26694
cpu0_STLB RFO          ACCESS:          0 HIT:          0 MISS:          0
cpu0_STLB PREFETCH     ACCESS:          0 HIT:          0 MISS:          0
cpu0_STLB WRITE        ACCESS:          0 HIT:          0 MISS:          0
cpu0_STLB TRANSLATION  ACCESS:          0 HIT:          0 MISS:          0
cpu0_STLB PREFETCH REQUESTED:          0 ISSUED:          0 USEFUL:          0 USELESS:          0
cpu0_STLB AVERAGE MISS LATENCY: 532.3 cycles

DRAM Statistics

Channel 0 RQ ROW_BUFFER_HIT:      79684
  ROW_BUFFER_MISS:     339002
 AVG DBUS CONGESTED CYCLE: 3.872
WQ ROW_BUFFER_HIT: Channel 0 
  ROW_BUFFER_MISS:       7174
  FULL:      47369
Final OPTGen Hits: 5324
Final OPTGen Access: 6905
Final OPTGEN Hit Rate: 77.1036
