WARNING: physical memory size is smaller than virtual memory size.

*** ChampSim Multicore Out-of-Order Simulator ***
Warmup Instructions: 50000000
Simulation Instructions: 600000000
Number of CPUs: 1
Page size: 4096

Off-chip DRAM Size: 4 GiB Channels: 1 Width: 64-bit Data Race: 3200 MT/s
Heartbeat CPU 0 instructions: 10000000 cycles: 2500061 heartbeat IPC: 4 cumulative IPC: 4 (Simulation time: 00 hr 00 min 37 sec)
Heartbeat CPU 0 instructions: 20000000 cycles: 5000061 heartbeat IPC: 4 cumulative IPC: 4 (Simulation time: 00 hr 01 min 38 sec)
Heartbeat CPU 0 instructions: 30000000 cycles: 7500061 heartbeat IPC: 4 cumulative IPC: 4 (Simulation time: 00 hr 03 min 04 sec)
Heartbeat CPU 0 instructions: 40000000 cycles: 10000061 heartbeat IPC: 4 cumulative IPC: 4 (Simulation time: 00 hr 04 min 58 sec)
Heartbeat CPU 0 instructions: 50000000 cycles: 12500061 heartbeat IPC: 4 cumulative IPC: 4 (Simulation time: 00 hr 07 min 14 sec)
Warmup finished CPU 0 instructions: 50000000 cycles: 12500062 cumulative IPC: 4 (Simulation time: 00 hr 07 min 14 sec)
Warmup complete CPU 0 instructions: 50000000 cycles: 12500062 cumulative IPC: 4 (Simulation time: 00 hr 07 min 14 sec)
Heartbeat CPU 0 instructions: 60000002 cycles: 16896553 heartbeat IPC: 2.275 cumulative IPC: 2.275 (Simulation time: 00 hr 11 min 28 sec)
Heartbeat CPU 0 instructions: 70000003 cycles: 21873166 heartbeat IPC: 2.009 cumulative IPC: 2.134 (Simulation time: 00 hr 16 min 44 sec)
Heartbeat CPU 0 instructions: 80000001 cycles: 27215142 heartbeat IPC: 1.872 cumulative IPC: 2.039 (Simulation time: 00 hr 22 min 05 sec)
Heartbeat CPU 0 instructions: 90000000 cycles: 31509834 heartbeat IPC: 2.328 cumulative IPC: 2.104 (Simulation time: 00 hr 26 min 56 sec)
Heartbeat CPU 0 instructions: 100000003 cycles: 36357541 heartbeat IPC: 2.063 cumulative IPC: 2.096 (Simulation time: 00 hr 31 min 56 sec)
Heartbeat CPU 0 instructions: 110000002 cycles: 41219449 heartbeat IPC: 2.057 cumulative IPC: 2.089 (Simulation time: 00 hr 36 min 58 sec)
Heartbeat CPU 0 instructions: 120000001 cycles: 46211655 heartbeat IPC: 2.003 cumulative IPC: 2.076 (Simulation time: 00 hr 42 min 08 sec)
Heartbeat CPU 0 instructions: 130000003 cycles: 50769930 heartbeat IPC: 2.194 cumulative IPC: 2.09 (Simulation time: 00 hr 47 min 04 sec)
Heartbeat CPU 0 instructions: 140000002 cycles: 55652318 heartbeat IPC: 2.048 cumulative IPC: 2.086 (Simulation time: 00 hr 52 min 11 sec)
Heartbeat CPU 0 instructions: 150000001 cycles: 60310577 heartbeat IPC: 2.147 cumulative IPC: 2.092 (Simulation time: 00 hr 57 min 07 sec)
Heartbeat CPU 0 instructions: 160000000 cycles: 64939148 heartbeat IPC: 2.16 cumulative IPC: 2.098 (Simulation time: 01 hr 02 min 08 sec)
Heartbeat CPU 0 instructions: 170000000 cycles: 70263714 heartbeat IPC: 1.878 cumulative IPC: 2.077 (Simulation time: 01 hr 07 min 32 sec)
Heartbeat CPU 0 instructions: 180000001 cycles: 75977629 heartbeat IPC: 1.75 cumulative IPC: 2.048 (Simulation time: 01 hr 13 min 08 sec)
Heartbeat CPU 0 instructions: 190000002 cycles: 80438699 heartbeat IPC: 2.242 cumulative IPC: 2.061 (Simulation time: 01 hr 18 min 04 sec)
Heartbeat CPU 0 instructions: 200000002 cycles: 85328789 heartbeat IPC: 2.045 cumulative IPC: 2.06 (Simulation time: 01 hr 23 min 11 sec)
Heartbeat CPU 0 instructions: 210000000 cycles: 90326809 heartbeat IPC: 2.001 cumulative IPC: 2.056 (Simulation time: 01 hr 28 min 22 sec)
Heartbeat CPU 0 instructions: 220000001 cycles: 95248492 heartbeat IPC: 2.032 cumulative IPC: 2.054 (Simulation time: 01 hr 33 min 27 sec)
Heartbeat CPU 0 instructions: 230000002 cycles: 100487664 heartbeat IPC: 1.909 cumulative IPC: 2.046 (Simulation time: 01 hr 38 min 51 sec)
Heartbeat CPU 0 instructions: 240000001 cycles: 105444670 heartbeat IPC: 2.017 cumulative IPC: 2.044 (Simulation time: 01 hr 44 min 01 sec)
Heartbeat CPU 0 instructions: 250000003 cycles: 110615158 heartbeat IPC: 1.934 cumulative IPC: 2.038 (Simulation time: 01 hr 49 min 16 sec)
Heartbeat CPU 0 instructions: 260000001 cycles: 115477705 heartbeat IPC: 2.057 cumulative IPC: 2.039 (Simulation time: 01 hr 54 min 22 sec)
Heartbeat CPU 0 instructions: 270000000 cycles: 122817630 heartbeat IPC: 1.362 cumulative IPC: 1.994 (Simulation time: 02 hr 01 min 08 sec)
Heartbeat CPU 0 instructions: 280000000 cycles: 134540276 heartbeat IPC: 0.853 cumulative IPC: 1.885 (Simulation time: 02 hr 10 min 46 sec)
Heartbeat CPU 0 instructions: 290000001 cycles: 144724671 heartbeat IPC: 0.9819 cumulative IPC: 1.815 (Simulation time: 02 hr 19 min 31 sec)
Heartbeat CPU 0 instructions: 300000003 cycles: 152267945 heartbeat IPC: 1.326 cumulative IPC: 1.789 (Simulation time: 02 hr 26 min 51 sec)
Heartbeat CPU 0 instructions: 310000004 cycles: 163703869 heartbeat IPC: 0.8744 cumulative IPC: 1.72 (Simulation time: 02 hr 36 min 36 sec)
Heartbeat CPU 0 instructions: 320000004 cycles: 169476519 heartbeat IPC: 1.732 cumulative IPC: 1.72 (Simulation time: 02 hr 42 min 36 sec)
Heartbeat CPU 0 instructions: 330000000 cycles: 174759993 heartbeat IPC: 1.893 cumulative IPC: 1.726 (Simulation time: 02 hr 48 min 13 sec)
Heartbeat CPU 0 instructions: 340000001 cycles: 179883133 heartbeat IPC: 1.952 cumulative IPC: 1.733 (Simulation time: 02 hr 53 min 35 sec)
Heartbeat CPU 0 instructions: 350000000 cycles: 185254540 heartbeat IPC: 1.862 cumulative IPC: 1.737 (Simulation time: 02 hr 59 min 09 sec)
Heartbeat CPU 0 instructions: 360000003 cycles: 190409419 heartbeat IPC: 1.94 cumulative IPC: 1.742 (Simulation time: 03 hr 04 min 33 sec)
Heartbeat CPU 0 instructions: 370000001 cycles: 195477223 heartbeat IPC: 1.973 cumulative IPC: 1.749 (Simulation time: 03 hr 09 min 52 sec)
Heartbeat CPU 0 instructions: 380000004 cycles: 200829111 heartbeat IPC: 1.869 cumulative IPC: 1.752 (Simulation time: 03 hr 15 min 24 sec)
Heartbeat CPU 0 instructions: 390000002 cycles: 206259089 heartbeat IPC: 1.842 cumulative IPC: 1.755 (Simulation time: 03 hr 21 min 01 sec)
Heartbeat CPU 0 instructions: 400000000 cycles: 211734233 heartbeat IPC: 1.826 cumulative IPC: 1.757 (Simulation time: 03 hr 26 min 37 sec)
Heartbeat CPU 0 instructions: 410000000 cycles: 219695185 heartbeat IPC: 1.256 cumulative IPC: 1.737 (Simulation time: 03 hr 33 min 57 sec)
Heartbeat CPU 0 instructions: 420000001 cycles: 230989292 heartbeat IPC: 0.8854 cumulative IPC: 1.693 (Simulation time: 03 hr 43 min 27 sec)
Heartbeat CPU 0 instructions: 430000000 cycles: 238524695 heartbeat IPC: 1.327 cumulative IPC: 1.681 (Simulation time: 03 hr 50 min 51 sec)
Heartbeat CPU 0 instructions: 440000002 cycles: 245770071 heartbeat IPC: 1.38 cumulative IPC: 1.672 (Simulation time: 03 hr 58 min 00 sec)
Heartbeat CPU 0 instructions: 450000000 cycles: 252475844 heartbeat IPC: 1.491 cumulative IPC: 1.667 (Simulation time: 04 hr 04 min 44 sec)
Heartbeat CPU 0 instructions: 460000002 cycles: 263837891 heartbeat IPC: 0.8801 cumulative IPC: 1.631 (Simulation time: 04 hr 14 min 18 sec)
Heartbeat CPU 0 instructions: 470000000 cycles: 274029127 heartbeat IPC: 0.9812 cumulative IPC: 1.606 (Simulation time: 04 hr 23 min 08 sec)
Heartbeat CPU 0 instructions: 480000000 cycles: 279498067 heartbeat IPC: 1.829 cumulative IPC: 1.61 (Simulation time: 04 hr 28 min 45 sec)
Heartbeat CPU 0 instructions: 490000001 cycles: 285197696 heartbeat IPC: 1.755 cumulative IPC: 1.614 (Simulation time: 04 hr 34 min 30 sec)
Heartbeat CPU 0 instructions: 500000002 cycles: 290830743 heartbeat IPC: 1.775 cumulative IPC: 1.617 (Simulation time: 04 hr 40 min 11 sec)
Heartbeat CPU 0 instructions: 510000000 cycles: 296497987 heartbeat IPC: 1.765 cumulative IPC: 1.62 (Simulation time: 04 hr 45 min 59 sec)
Heartbeat CPU 0 instructions: 520000000 cycles: 302247476 heartbeat IPC: 1.739 cumulative IPC: 1.622 (Simulation time: 04 hr 51 min 46 sec)
Heartbeat CPU 0 instructions: 530000001 cycles: 313396063 heartbeat IPC: 0.897 cumulative IPC: 1.595 (Simulation time: 05 hr 01 min 06 sec)
Heartbeat CPU 0 instructions: 540000000 cycles: 324329414 heartbeat IPC: 0.9146 cumulative IPC: 1.571 (Simulation time: 05 hr 10 min 30 sec)
Heartbeat CPU 0 instructions: 550000002 cycles: 337113372 heartbeat IPC: 0.7822 cumulative IPC: 1.54 (Simulation time: 05 hr 20 min 55 sec)
Heartbeat CPU 0 instructions: 560000004 cycles: 342023089 heartbeat IPC: 2.037 cumulative IPC: 1.548 (Simulation time: 05 hr 26 min 14 sec)
Heartbeat CPU 0 instructions: 570000001 cycles: 346432879 heartbeat IPC: 2.268 cumulative IPC: 1.557 (Simulation time: 05 hr 31 min 07 sec)
Heartbeat CPU 0 instructions: 580000003 cycles: 350671005 heartbeat IPC: 2.36 cumulative IPC: 1.567 (Simulation time: 05 hr 36 min 01 sec)
Heartbeat CPU 0 instructions: 590000001 cycles: 355575136 heartbeat IPC: 2.039 cumulative IPC: 1.574 (Simulation time: 05 hr 41 min 34 sec)
Heartbeat CPU 0 instructions: 600000003 cycles: 360217904 heartbeat IPC: 2.154 cumulative IPC: 1.582 (Simulation time: 05 hr 46 min 58 sec)
Heartbeat CPU 0 instructions: 610000001 cycles: 365079685 heartbeat IPC: 2.057 cumulative IPC: 1.588 (Simulation time: 05 hr 52 min 20 sec)
Heartbeat CPU 0 instructions: 620000000 cycles: 370146373 heartbeat IPC: 1.974 cumulative IPC: 1.594 (Simulation time: 05 hr 57 min 52 sec)
Heartbeat CPU 0 instructions: 630000002 cycles: 374387876 heartbeat IPC: 2.358 cumulative IPC: 1.603 (Simulation time: 06 hr 03 min 11 sec)
Heartbeat CPU 0 instructions: 640000004 cycles: 379708317 heartbeat IPC: 1.88 cumulative IPC: 1.607 (Simulation time: 06 hr 08 min 51 sec)
Heartbeat CPU 0 instructions: 650000001 cycles: 384466322 heartbeat IPC: 2.102 cumulative IPC: 1.613 (Simulation time: 06 hr 14 min 15 sec)
Simulation finished CPU 0 instructions: 600000001 cycles: 371966261 cumulative IPC: 1.613 (Simulation time: 06 hr 14 min 15 sec)
Simulation complete CPU 0 instructions: 600000001 cycles: 371966261 cumulative IPC: 1.613 (Simulation time: 06 hr 14 min 15 sec)

ChampSim completed all CPUs

=== Simulation ===
CPU 0 runs traces/400.perlbench-50B.champsimtrace.xz
Region of Interest Statistics

CPU 0 cumulative IPC: 1.613 instructions: 600000001 cycles: 371966261
CPU 0 Branch Prediction Accuracy: 93.83% MPKI: 12.71 Average ROB Occupancy at Mispredict: 29.21
Branch type MPKI
BRANCH_DIRECT_JUMP: 0.0176
BRANCH_INDIRECT: 0.38
BRANCH_CONDITIONAL: 11.9
BRANCH_DIRECT_CALL: 0.0067
BRANCH_INDIRECT_CALL: 0.431
BRANCH_RETURN: 0.0161

LLC TOTAL        ACCESS:     889364 HIT:     378349 MISS:     511015
LLC LOAD         ACCESS:     377228 HIT:     150978 MISS:     226250
LLC RFO          ACCESS:      32686 HIT:      12271 MISS:      20415
LLC PREFETCH     ACCESS:     377228 HIT:     133451 MISS:     243777
LLC WRITE        ACCESS:      84182 HIT:      76525 MISS:       7657
LLC TRANSLATION  ACCESS:      18040 HIT:       5124 MISS:      12916
LLC PREFETCH REQUESTED:     377228 ISSUED:     377228 USEFUL:      80505 USELESS:     103653
LLC AVERAGE MISS LATENCY: 553.6 cycles
cpu0_DTLB TOTAL        ACCESS:  156755505 HIT:  155455581 MISS:    1299924
cpu0_DTLB LOAD         ACCESS:  156755505 HIT:  155455581 MISS:    1299924
cpu0_DTLB RFO          ACCESS:          0 HIT:          0 MISS:          0
cpu0_DTLB PREFETCH     ACCESS:          0 HIT:          0 MISS:          0
cpu0_DTLB WRITE        ACCESS:          0 HIT:          0 MISS:          0
cpu0_DTLB TRANSLATION  ACCESS:          0 HIT:          0 MISS:          0
cpu0_DTLB PREFETCH REQUESTED:          0 ISSUED:          0 USEFUL:          0 USELESS:          0
cpu0_DTLB AVERAGE MISS LATENCY: 13.46 cycles
cpu0_ITLB TOTAL        ACCESS:    8932448 HIT:    8733618 MISS:     198830
cpu0_ITLB LOAD         ACCESS:    8932448 HIT:    8733618 MISS:     198830
cpu0_ITLB RFO          ACCESS:          0 HIT:          0 MISS:          0
cpu0_ITLB PREFETCH     ACCESS:          0 HIT:          0 MISS:          0
cpu0_ITLB WRITE        ACCESS:          0 HIT:          0 MISS:          0
cpu0_ITLB TRANSLATION  ACCESS:          0 HIT:          0 MISS:          0
cpu0_ITLB PREFETCH REQUESTED:          0 ISSUED:          0 USEFUL:          0 USELESS:          0
cpu0_ITLB AVERAGE MISS LATENCY: 3.501 cycles
cpu0_L1D TOTAL        ACCESS:  203640098 HIT:  200796311 MISS:    2843787
cpu0_L1D LOAD         ACCESS:  117963447 HIT:  115630177 MISS:    2333270
cpu0_L1D RFO          ACCESS:          0 HIT:          0 MISS:          0
cpu0_L1D PREFETCH     ACCESS:          0 HIT:          0 MISS:          0
cpu0_L1D WRITE        ACCESS:   85648114 HIT:   85164143 MISS:     483971
cpu0_L1D TRANSLATION  ACCESS:      28537 HIT:       1991 MISS:      26546
cpu0_L1D PREFETCH REQUESTED:          0 ISSUED:          0 USEFUL:          0 USELESS:          0
cpu0_L1D AVERAGE MISS LATENCY: 58.73 cycles
cpu0_L1I TOTAL        ACCESS:   10371209 HIT:    8572208 MISS:    1799001
cpu0_L1I LOAD         ACCESS:   10371209 HIT:    8572208 MISS:    1799001
cpu0_L1I RFO          ACCESS:          0 HIT:          0 MISS:          0
cpu0_L1I PREFETCH     ACCESS:          0 HIT:          0 MISS:          0
cpu0_L1I WRITE        ACCESS:          0 HIT:          0 MISS:          0
cpu0_L1I TRANSLATION  ACCESS:          0 HIT:          0 MISS:          0
cpu0_L1I PREFETCH REQUESTED:          0 ISSUED:          0 USEFUL:          0 USELESS:          0
cpu0_L1I AVERAGE MISS LATENCY: 11.58 cycles
cpu0_L2C TOTAL        ACCESS:    3235368 HIT:    2806500 MISS:     428868
cpu0_L2C LOAD         ACCESS:    2711766 HIT:    2334538 MISS:     377228
cpu0_L2C RFO          ACCESS:     133669 HIT:     100983 MISS:      32686
cpu0_L2C PREFETCH     ACCESS:          0 HIT:          0 MISS:          0
cpu0_L2C WRITE        ACCESS:     363471 HIT:     362557 MISS:        914
cpu0_L2C TRANSLATION  ACCESS:      26462 HIT:       8422 MISS:      18040
cpu0_L2C PREFETCH REQUESTED:          0 ISSUED:          0 USEFUL:          0 USELESS:          0
cpu0_L2C AVERAGE MISS LATENCY: 386.4 cycles
cpu0_STLB TOTAL        ACCESS:    1009108 HIT:     982419 MISS:      26689
cpu0_STLB LOAD         ACCESS:    1009108 HIT:     982419 MISS:      26689
cpu0_STLB RFO          ACCESS:          0 HIT:          0 MISS:          0
cpu0_STLB PREFETCH     ACCESS:          0 HIT:          0 MISS:          0
cpu0_STLB WRITE        ACCESS:          0 HIT:          0 MISS:          0
cpu0_STLB TRANSLATION  ACCESS:          0 HIT:          0 MISS:          0
cpu0_STLB PREFETCH REQUESTED:          0 ISSUED:          0 USEFUL:          0 USELESS:          0
cpu0_STLB AVERAGE MISS LATENCY: 440.9 cycles

DRAM Statistics

Channel 0 RQ ROW_BUFFER_HIT:      80379
  ROW_BUFFER_MISS:     350351
 AVG DBUS CONGESTED CYCLE: 3.87
WQ ROW_BUFFER_HIT: Channel 0 
  ROW_BUFFER_MISS:       6794
  FULL:      46061
