WARNING: physical memory size is smaller than virtual memory size.

*** ChampSim Multicore Out-of-Order Simulator ***
Warmup Instructions: 50000000
Simulation Instructions: 600000000
Number of CPUs: 1
Page size: 4096

Initialize SIGNATURE TABLE
ST_SET: 1
ST_WAY: 256
ST_TAG_BIT: 16
ST_TAG_MASK: ffff

Initialize PATTERN TABLE
PT_SET: 512
PT_WAY: 4
SIG_DELTA_BIT: 7
C_SIG_BIT: 4
C_DELTA_BIT: 4

Initialize PREFETCH FILTER
FILTER_SET: 1024
Off-chip DRAM Size: 4 GiB Channels: 1 Width: 64-bit Data Race: 3200 MT/s
Heartbeat CPU 0 instructions: 10000000 cycles: 2500061 heartbeat IPC: 4 cumulative IPC: 4 (Simulation time: 00 hr 03 min 24 sec)
Heartbeat CPU 0 instructions: 20000000 cycles: 5000061 heartbeat IPC: 4 cumulative IPC: 4 (Simulation time: 00 hr 06 min 51 sec)
Heartbeat CPU 0 instructions: 30000000 cycles: 7500061 heartbeat IPC: 4 cumulative IPC: 4 (Simulation time: 00 hr 10 min 13 sec)
Heartbeat CPU 0 instructions: 40000000 cycles: 10000061 heartbeat IPC: 4 cumulative IPC: 4 (Simulation time: 00 hr 13 min 38 sec)
Heartbeat CPU 0 instructions: 50000000 cycles: 12500061 heartbeat IPC: 4 cumulative IPC: 4 (Simulation time: 00 hr 17 min 06 sec)
Warmup finished CPU 0 instructions: 50000000 cycles: 12500062 cumulative IPC: 4 (Simulation time: 00 hr 17 min 06 sec)
Warmup complete CPU 0 instructions: 50000000 cycles: 12500062 cumulative IPC: 4 (Simulation time: 00 hr 17 min 06 sec)
Heartbeat CPU 0 instructions: 60000002 cycles: 16447900 heartbeat IPC: 2.533 cumulative IPC: 2.533 (Simulation time: 00 hr 21 min 49 sec)
Heartbeat CPU 0 instructions: 70000003 cycles: 20772223 heartbeat IPC: 2.313 cumulative IPC: 2.418 (Simulation time: 00 hr 26 min 46 sec)
Heartbeat CPU 0 instructions: 80000003 cycles: 25252188 heartbeat IPC: 2.232 cumulative IPC: 2.353 (Simulation time: 00 hr 31 min 45 sec)
Heartbeat CPU 0 instructions: 90000000 cycles: 28949396 heartbeat IPC: 2.705 cumulative IPC: 2.432 (Simulation time: 00 hr 36 min 16 sec)
Heartbeat CPU 0 instructions: 100000003 cycles: 32858450 heartbeat IPC: 2.558 cumulative IPC: 2.456 (Simulation time: 00 hr 40 min 59 sec)
Heartbeat CPU 0 instructions: 110000002 cycles: 36964000 heartbeat IPC: 2.436 cumulative IPC: 2.453 (Simulation time: 00 hr 45 min 42 sec)
Heartbeat CPU 0 instructions: 120000001 cycles: 40690154 heartbeat IPC: 2.684 cumulative IPC: 2.483 (Simulation time: 00 hr 50 min 15 sec)
Heartbeat CPU 0 instructions: 130000003 cycles: 44473343 heartbeat IPC: 2.643 cumulative IPC: 2.502 (Simulation time: 00 hr 54 min 50 sec)
Heartbeat CPU 0 instructions: 140000002 cycles: 48613655 heartbeat IPC: 2.415 cumulative IPC: 2.492 (Simulation time: 00 hr 59 min 34 sec)
Heartbeat CPU 0 instructions: 150000001 cycles: 52673304 heartbeat IPC: 2.463 cumulative IPC: 2.489 (Simulation time: 01 hr 04 min 16 sec)
Heartbeat CPU 0 instructions: 160000000 cycles: 56335730 heartbeat IPC: 2.73 cumulative IPC: 2.509 (Simulation time: 01 hr 09 min 01 sec)
Heartbeat CPU 0 instructions: 170000001 cycles: 60516695 heartbeat IPC: 2.392 cumulative IPC: 2.499 (Simulation time: 01 hr 13 min 50 sec)
Heartbeat CPU 0 instructions: 180000001 cycles: 63985588 heartbeat IPC: 2.883 cumulative IPC: 2.525 (Simulation time: 01 hr 18 min 22 sec)
Heartbeat CPU 0 instructions: 190000002 cycles: 67578627 heartbeat IPC: 2.783 cumulative IPC: 2.542 (Simulation time: 01 hr 22 min 53 sec)
Heartbeat CPU 0 instructions: 200000002 cycles: 71371166 heartbeat IPC: 2.637 cumulative IPC: 2.548 (Simulation time: 01 hr 27 min 30 sec)
Heartbeat CPU 0 instructions: 210000000 cycles: 75016198 heartbeat IPC: 2.743 cumulative IPC: 2.559 (Simulation time: 01 hr 32 min 00 sec)
Heartbeat CPU 0 instructions: 220000001 cycles: 78894693 heartbeat IPC: 2.578 cumulative IPC: 2.56 (Simulation time: 01 hr 36 min 39 sec)
Heartbeat CPU 0 instructions: 230000002 cycles: 82745527 heartbeat IPC: 2.597 cumulative IPC: 2.562 (Simulation time: 01 hr 41 min 26 sec)
Heartbeat CPU 0 instructions: 240000001 cycles: 86963583 heartbeat IPC: 2.371 cumulative IPC: 2.552 (Simulation time: 01 hr 46 min 19 sec)
Heartbeat CPU 0 instructions: 250000003 cycles: 91548348 heartbeat IPC: 2.181 cumulative IPC: 2.53 (Simulation time: 01 hr 51 min 16 sec)
Heartbeat CPU 0 instructions: 260000000 cycles: 95349712 heartbeat IPC: 2.631 cumulative IPC: 2.535 (Simulation time: 01 hr 55 min 53 sec)
Heartbeat CPU 0 instructions: 270000003 cycles: 102526496 heartbeat IPC: 1.393 cumulative IPC: 2.444 (Simulation time: 02 hr 02 min 43 sec)
Heartbeat CPU 0 instructions: 280000000 cycles: 115031302 heartbeat IPC: 0.7997 cumulative IPC: 2.243 (Simulation time: 02 hr 13 min 17 sec)
Heartbeat CPU 0 instructions: 290000000 cycles: 127235860 heartbeat IPC: 0.8194 cumulative IPC: 2.092 (Simulation time: 02 hr 23 min 41 sec)
Heartbeat CPU 0 instructions: 300000003 cycles: 135169006 heartbeat IPC: 1.261 cumulative IPC: 2.038 (Simulation time: 02 hr 31 min 23 sec)
Heartbeat CPU 0 instructions: 310000004 cycles: 147592817 heartbeat IPC: 0.8049 cumulative IPC: 1.925 (Simulation time: 02 hr 42 min 02 sec)
Heartbeat CPU 0 instructions: 320000004 cycles: 153016721 heartbeat IPC: 1.844 cumulative IPC: 1.921 (Simulation time: 02 hr 48 min 06 sec)
Heartbeat CPU 0 instructions: 330000000 cycles: 157098070 heartbeat IPC: 2.45 cumulative IPC: 1.936 (Simulation time: 02 hr 53 min 06 sec)
Heartbeat CPU 0 instructions: 340000001 cycles: 161200025 heartbeat IPC: 2.438 cumulative IPC: 1.95 (Simulation time: 02 hr 57 min 57 sec)
Heartbeat CPU 0 instructions: 350000004 cycles: 165235966 heartbeat IPC: 2.478 cumulative IPC: 1.964 (Simulation time: 03 hr 02 min 47 sec)
Heartbeat CPU 0 instructions: 360000003 cycles: 168926482 heartbeat IPC: 2.71 cumulative IPC: 1.982 (Simulation time: 03 hr 07 min 25 sec)
Heartbeat CPU 0 instructions: 370000001 cycles: 172584277 heartbeat IPC: 2.734 cumulative IPC: 1.999 (Simulation time: 03 hr 12 min 06 sec)
Heartbeat CPU 0 instructions: 380000004 cycles: 176120886 heartbeat IPC: 2.828 cumulative IPC: 2.017 (Simulation time: 03 hr 16 min 41 sec)
Heartbeat CPU 0 instructions: 390000002 cycles: 179879867 heartbeat IPC: 2.66 cumulative IPC: 2.031 (Simulation time: 03 hr 21 min 24 sec)
Heartbeat CPU 0 instructions: 400000000 cycles: 183789617 heartbeat IPC: 2.558 cumulative IPC: 2.043 (Simulation time: 03 hr 26 min 08 sec)
Heartbeat CPU 0 instructions: 410000000 cycles: 191047286 heartbeat IPC: 1.378 cumulative IPC: 2.016 (Simulation time: 03 hr 33 min 06 sec)
Heartbeat CPU 0 instructions: 420000003 cycles: 203568714 heartbeat IPC: 0.7986 cumulative IPC: 1.936 (Simulation time: 03 hr 43 min 31 sec)
Heartbeat CPU 0 instructions: 430000000 cycles: 211699525 heartbeat IPC: 1.23 cumulative IPC: 1.908 (Simulation time: 03 hr 51 min 17 sec)
Heartbeat CPU 0 instructions: 440000004 cycles: 220263218 heartbeat IPC: 1.168 cumulative IPC: 1.877 (Simulation time: 03 hr 59 min 28 sec)
Heartbeat CPU 0 instructions: 450000000 cycles: 228239189 heartbeat IPC: 1.254 cumulative IPC: 1.854 (Simulation time: 04 hr 07 min 00 sec)
Heartbeat CPU 0 instructions: 460000002 cycles: 242843344 heartbeat IPC: 0.6847 cumulative IPC: 1.78 (Simulation time: 04 hr 18 min 54 sec)
Heartbeat CPU 0 instructions: 470000003 cycles: 253887641 heartbeat IPC: 0.9054 cumulative IPC: 1.74 (Simulation time: 04 hr 28 min 25 sec)
Heartbeat CPU 0 instructions: 480000003 cycles: 258263468 heartbeat IPC: 2.285 cumulative IPC: 1.75 (Simulation time: 04 hr 33 min 28 sec)
Heartbeat CPU 0 instructions: 490000001 cycles: 262213487 heartbeat IPC: 2.532 cumulative IPC: 1.762 (Simulation time: 04 hr 38 min 14 sec)
Heartbeat CPU 0 instructions: 500000002 cycles: 266030888 heartbeat IPC: 2.62 cumulative IPC: 1.775 (Simulation time: 04 hr 43 min 01 sec)
Heartbeat CPU 0 instructions: 510000000 cycles: 269565996 heartbeat IPC: 2.829 cumulative IPC: 1.789 (Simulation time: 04 hr 47 min 35 sec)
Heartbeat CPU 0 instructions: 520000000 cycles: 273262899 heartbeat IPC: 2.705 cumulative IPC: 1.802 (Simulation time: 04 hr 52 min 13 sec)
Heartbeat CPU 0 instructions: 530000001 cycles: 285026991 heartbeat IPC: 0.85 cumulative IPC: 1.761 (Simulation time: 05 hr 02 min 04 sec)
Heartbeat CPU 0 instructions: 540000000 cycles: 298576409 heartbeat IPC: 0.738 cumulative IPC: 1.713 (Simulation time: 05 hr 13 min 19 sec)
Heartbeat CPU 0 instructions: 550000004 cycles: 313872558 heartbeat IPC: 0.6538 cumulative IPC: 1.659 (Simulation time: 05 hr 25 min 40 sec)
Heartbeat CPU 0 instructions: 560000004 cycles: 318567650 heartbeat IPC: 2.13 cumulative IPC: 1.666 (Simulation time: 05 hr 30 min 55 sec)
Heartbeat CPU 0 instructions: 570000001 cycles: 321706522 heartbeat IPC: 3.186 cumulative IPC: 1.682 (Simulation time: 05 hr 35 min 13 sec)
Heartbeat CPU 0 instructions: 580000003 cycles: 325260731 heartbeat IPC: 2.814 cumulative IPC: 1.695 (Simulation time: 05 hr 39 min 59 sec)
Heartbeat CPU 0 instructions: 590000002 cycles: 328895251 heartbeat IPC: 2.751 cumulative IPC: 1.707 (Simulation time: 05 hr 44 min 37 sec)
Heartbeat CPU 0 instructions: 600000003 cycles: 331969433 heartbeat IPC: 3.253 cumulative IPC: 1.722 (Simulation time: 05 hr 48 min 57 sec)
Heartbeat CPU 0 instructions: 610000001 cycles: 335485821 heartbeat IPC: 2.844 cumulative IPC: 1.734 (Simulation time: 05 hr 53 min 26 sec)
Heartbeat CPU 0 instructions: 620000000 cycles: 339505776 heartbeat IPC: 2.488 cumulative IPC: 1.743 (Simulation time: 05 hr 58 min 30 sec)
Heartbeat CPU 0 instructions: 630000002 cycles: 342875438 heartbeat IPC: 2.968 cumulative IPC: 1.756 (Simulation time: 06 hr 02 min 56 sec)
Heartbeat CPU 0 instructions: 640000004 cycles: 346871056 heartbeat IPC: 2.503 cumulative IPC: 1.765 (Simulation time: 06 hr 07 min 44 sec)
Heartbeat CPU 0 instructions: 650000001 cycles: 350688214 heartbeat IPC: 2.62 cumulative IPC: 1.774 (Simulation time: 06 hr 12 min 21 sec)
Simulation finished CPU 0 instructions: 600000001 cycles: 338188153 cumulative IPC: 1.774 (Simulation time: 06 hr 12 min 21 sec)
Simulation complete CPU 0 instructions: 600000001 cycles: 338188153 cumulative IPC: 1.774 (Simulation time: 06 hr 12 min 21 sec)

ChampSim completed all CPUs

=== Simulation ===
CPU 0 runs traces/400.perlbench-50B.champsimtrace.xz
Region of Interest Statistics

CPU 0 cumulative IPC: 1.774 instructions: 600000001 cycles: 338188153
CPU 0 Branch Prediction Accuracy: 96.2% MPKI: 7.839 Average ROB Occupancy at Mispredict: 43.7
Branch type MPKI
BRANCH_DIRECT_JUMP: 0.0176
BRANCH_INDIRECT: 0.38
BRANCH_CONDITIONAL: 6.99
BRANCH_DIRECT_CALL: 0.0067
BRANCH_INDIRECT_CALL: 0.431
BRANCH_RETURN: 0.0161

LLC TOTAL        ACCESS:     879868 HIT:     216006 MISS:     663862
LLC LOAD         ACCESS:     376999 HIT:      97179 MISS:     279820
LLC RFO          ACCESS:      32945 HIT:       7788 MISS:      25157
LLC PREFETCH     ACCESS:     367889 HIT:      85007 MISS:     282882
LLC WRITE        ACCESS:      83924 HIT:      24576 MISS:      59348
LLC TRANSLATION  ACCESS:      18111 HIT:       1456 MISS:      16655
LLC PREFETCH REQUESTED:     367889 ISSUED:     367889 USEFUL:       2540 USELESS:        277
LLC AVERAGE MISS LATENCY: 286.8 cycles
cpu0_DTLB TOTAL        ACCESS:  146452970 HIT:  145149411 MISS:    1303559
cpu0_DTLB LOAD         ACCESS:  146452970 HIT:  145149411 MISS:    1303559
cpu0_DTLB RFO          ACCESS:          0 HIT:          0 MISS:          0
cpu0_DTLB PREFETCH     ACCESS:          0 HIT:          0 MISS:          0
cpu0_DTLB WRITE        ACCESS:          0 HIT:          0 MISS:          0
cpu0_DTLB TRANSLATION  ACCESS:          0 HIT:          0 MISS:          0
cpu0_DTLB PREFETCH REQUESTED:          0 ISSUED:          0 USEFUL:          0 USELESS:          0
cpu0_DTLB AVERAGE MISS LATENCY: 14.9 cycles
cpu0_ITLB TOTAL        ACCESS:    8986629 HIT:    8801892 MISS:     184737
cpu0_ITLB LOAD         ACCESS:    8986629 HIT:    8801892 MISS:     184737
cpu0_ITLB RFO          ACCESS:          0 HIT:          0 MISS:          0
cpu0_ITLB PREFETCH     ACCESS:          0 HIT:          0 MISS:          0
cpu0_ITLB WRITE        ACCESS:          0 HIT:          0 MISS:          0
cpu0_ITLB TRANSLATION  ACCESS:          0 HIT:          0 MISS:          0
cpu0_ITLB PREFETCH REQUESTED:          0 ISSUED:          0 USEFUL:          0 USELESS:          0
cpu0_ITLB AVERAGE MISS LATENCY: 4.081 cycles
cpu0_L1D TOTAL        ACCESS:  193263281 HIT:  190407046 MISS:    2856235
cpu0_L1D LOAD         ACCESS:  107416569 HIT:  105067203 MISS:    2349366
cpu0_L1D RFO          ACCESS:          0 HIT:          0 MISS:          0
cpu0_L1D PREFETCH     ACCESS:          0 HIT:          0 MISS:          0
cpu0_L1D WRITE        ACCESS:   85818187 HIT:   85337828 MISS:     480359
cpu0_L1D TRANSLATION  ACCESS:      28525 HIT:       2015 MISS:      26510
cpu0_L1D PREFETCH REQUESTED:          0 ISSUED:          0 USEFUL:          0 USELESS:          0
cpu0_L1D AVERAGE MISS LATENCY: 67.21 cycles
cpu0_L1I TOTAL        ACCESS:   10420749 HIT:    8657837 MISS:    1762912
cpu0_L1I LOAD         ACCESS:   10420749 HIT:    8657837 MISS:    1762912
cpu0_L1I RFO          ACCESS:          0 HIT:          0 MISS:          0
cpu0_L1I PREFETCH     ACCESS:          0 HIT:          0 MISS:          0
cpu0_L1I WRITE        ACCESS:          0 HIT:          0 MISS:          0
cpu0_L1I TRANSLATION  ACCESS:          0 HIT:          0 MISS:          0
cpu0_L1I PREFETCH REQUESTED:          0 ISSUED:          0 USEFUL:          0 USELESS:          0
cpu0_L1I AVERAGE MISS LATENCY: 14.9 cycles
cpu0_L2C TOTAL        ACCESS:    3232270 HIT:    2803291 MISS:     428979
cpu0_L2C LOAD         ACCESS:    2710087 HIT:    2333088 MISS:     376999
cpu0_L2C RFO          ACCESS:     133269 HIT:     100324 MISS:      32945
cpu0_L2C PREFETCH     ACCESS:          0 HIT:          0 MISS:          0
cpu0_L2C WRITE        ACCESS:     362473 HIT:     361549 MISS:        924
cpu0_L2C TRANSLATION  ACCESS:      26441 HIT:       8330 MISS:      18111
cpu0_L2C PREFETCH REQUESTED:          0 ISSUED:          0 USEFUL:          0 USELESS:          0
cpu0_L2C AVERAGE MISS LATENCY: 459.9 cycles
cpu0_STLB TOTAL        ACCESS:    1008466 HIT:     981773 MISS:      26693
cpu0_STLB LOAD         ACCESS:    1008466 HIT:     981773 MISS:      26693
cpu0_STLB RFO          ACCESS:          0 HIT:          0 MISS:          0
cpu0_STLB PREFETCH     ACCESS:          0 HIT:          0 MISS:          0
cpu0_STLB WRITE        ACCESS:          0 HIT:          0 MISS:          0
cpu0_STLB TRANSLATION  ACCESS:          0 HIT:          0 MISS:          0
cpu0_STLB PREFETCH REQUESTED:          0 ISSUED:          0 USEFUL:          0 USELESS:          0
cpu0_STLB AVERAGE MISS LATENCY: 516.8 cycles

DRAM Statistics

Channel 0 RQ ROW_BUFFER_HIT:      77891
  ROW_BUFFER_MISS:     370633
 AVG DBUS CONGESTED CYCLE: 3.87
WQ ROW_BUFFER_HIT: Channel 0 
  ROW_BUFFER_MISS:       8608
  FULL:      52681
