WARNING: physical memory size is smaller than virtual memory size.

*** ChampSim Multicore Out-of-Order Simulator ***
Warmup Instructions: 50000000
Simulation Instructions: 600000000
Number of CPUs: 1
Page size: 4096

CPU 0 Tage branch predictor
Off-chip DRAM Size: 4 GiB Channels: 1 Width: 64-bit Data Race: 3200 MT/s
Heartbeat CPU 0 instructions: 10000000 cycles: 2500061 heartbeat IPC: 4 cumulative IPC: 4 (Simulation time: 00 hr 03 min 57 sec)
Heartbeat CPU 0 instructions: 20000000 cycles: 5000061 heartbeat IPC: 4 cumulative IPC: 4 (Simulation time: 00 hr 08 min 05 sec)
Heartbeat CPU 0 instructions: 30000000 cycles: 7500061 heartbeat IPC: 4 cumulative IPC: 4 (Simulation time: 00 hr 11 min 57 sec)
Heartbeat CPU 0 instructions: 40000000 cycles: 10000061 heartbeat IPC: 4 cumulative IPC: 4 (Simulation time: 00 hr 16 min 06 sec)
Heartbeat CPU 0 instructions: 50000000 cycles: 12500061 heartbeat IPC: 4 cumulative IPC: 4 (Simulation time: 00 hr 20 min 05 sec)
Warmup finished CPU 0 instructions: 50000000 cycles: 12500062 cumulative IPC: 4 (Simulation time: 00 hr 20 min 05 sec)
Warmup complete CPU 0 instructions: 50000000 cycles: 12500062 cumulative IPC: 4 (Simulation time: 00 hr 20 min 05 sec)
Heartbeat CPU 0 instructions: 60000004 cycles: 15503998 heartbeat IPC: 3.329 cumulative IPC: 3.329 (Simulation time: 00 hr 25 min 01 sec)
Heartbeat CPU 0 instructions: 70000003 cycles: 18369852 heartbeat IPC: 3.489 cumulative IPC: 3.407 (Simulation time: 00 hr 29 min 43 sec)
Heartbeat CPU 0 instructions: 80000002 cycles: 21380918 heartbeat IPC: 3.321 cumulative IPC: 3.378 (Simulation time: 00 hr 34 min 32 sec)
Heartbeat CPU 0 instructions: 90000000 cycles: 24098695 heartbeat IPC: 3.679 cumulative IPC: 3.449 (Simulation time: 00 hr 39 min 09 sec)
Heartbeat CPU 0 instructions: 100000003 cycles: 26855195 heartbeat IPC: 3.628 cumulative IPC: 3.483 (Simulation time: 00 hr 43 min 34 sec)
Heartbeat CPU 0 instructions: 110000001 cycles: 29752526 heartbeat IPC: 3.451 cumulative IPC: 3.478 (Simulation time: 00 hr 47 min 43 sec)
Heartbeat CPU 0 instructions: 120000001 cycles: 32468927 heartbeat IPC: 3.681 cumulative IPC: 3.505 (Simulation time: 00 hr 51 min 30 sec)
Heartbeat CPU 0 instructions: 130000003 cycles: 35368195 heartbeat IPC: 3.449 cumulative IPC: 3.498 (Simulation time: 00 hr 55 min 17 sec)
Heartbeat CPU 0 instructions: 140000002 cycles: 38202123 heartbeat IPC: 3.529 cumulative IPC: 3.502 (Simulation time: 00 hr 58 min 54 sec)
Heartbeat CPU 0 instructions: 150000001 cycles: 40972190 heartbeat IPC: 3.61 cumulative IPC: 3.512 (Simulation time: 01 hr 02 min 23 sec)
Heartbeat CPU 0 instructions: 160000000 cycles: 43889670 heartbeat IPC: 3.428 cumulative IPC: 3.504 (Simulation time: 01 hr 05 min 44 sec)
Heartbeat CPU 0 instructions: 170000001 cycles: 46817544 heartbeat IPC: 3.415 cumulative IPC: 3.497 (Simulation time: 01 hr 09 min 00 sec)
Heartbeat CPU 0 instructions: 180000000 cycles: 49608288 heartbeat IPC: 3.583 cumulative IPC: 3.503 (Simulation time: 01 hr 12 min 08 sec)
Heartbeat CPU 0 instructions: 190000002 cycles: 52316250 heartbeat IPC: 3.693 cumulative IPC: 3.516 (Simulation time: 01 hr 15 min 16 sec)
Heartbeat CPU 0 instructions: 200000002 cycles: 55136667 heartbeat IPC: 3.546 cumulative IPC: 3.518 (Simulation time: 01 hr 18 min 19 sec)
Heartbeat CPU 0 instructions: 210000000 cycles: 58029132 heartbeat IPC: 3.457 cumulative IPC: 3.514 (Simulation time: 01 hr 21 min 24 sec)
Heartbeat CPU 0 instructions: 220000001 cycles: 60781160 heartbeat IPC: 3.634 cumulative IPC: 3.521 (Simulation time: 01 hr 24 min 22 sec)
Heartbeat CPU 0 instructions: 230000002 cycles: 63670325 heartbeat IPC: 3.461 cumulative IPC: 3.518 (Simulation time: 01 hr 27 min 25 sec)
Heartbeat CPU 0 instructions: 240000004 cycles: 66621070 heartbeat IPC: 3.389 cumulative IPC: 3.511 (Simulation time: 01 hr 30 min 24 sec)
Heartbeat CPU 0 instructions: 250000003 cycles: 69511506 heartbeat IPC: 3.46 cumulative IPC: 3.508 (Simulation time: 01 hr 33 min 42 sec)
Heartbeat CPU 0 instructions: 260000001 cycles: 72296303 heartbeat IPC: 3.591 cumulative IPC: 3.512 (Simulation time: 01 hr 36 min 43 sec)
Heartbeat CPU 0 instructions: 270000002 cycles: 78117978 heartbeat IPC: 1.718 cumulative IPC: 3.353 (Simulation time: 01 hr 41 min 05 sec)
Heartbeat CPU 0 instructions: 280000000 cycles: 88200224 heartbeat IPC: 0.9918 cumulative IPC: 3.038 (Simulation time: 01 hr 47 min 17 sec)
Heartbeat CPU 0 instructions: 290000000 cycles: 97735399 heartbeat IPC: 1.049 cumulative IPC: 2.816 (Simulation time: 01 hr 53 min 19 sec)
Heartbeat CPU 0 instructions: 300000003 cycles: 103457022 heartbeat IPC: 1.748 cumulative IPC: 2.749 (Simulation time: 01 hr 57 min 51 sec)
Heartbeat CPU 0 instructions: 310000001 cycles: 112663279 heartbeat IPC: 1.086 cumulative IPC: 2.596 (Simulation time: 02 hr 03 min 55 sec)
Heartbeat CPU 0 instructions: 320000004 cycles: 116760431 heartbeat IPC: 2.441 cumulative IPC: 2.59 (Simulation time: 02 hr 07 min 42 sec)
Heartbeat CPU 0 instructions: 330000000 cycles: 119905090 heartbeat IPC: 3.18 cumulative IPC: 2.607 (Simulation time: 02 hr 10 min 59 sec)
Heartbeat CPU 0 instructions: 340000001 cycles: 122896552 heartbeat IPC: 3.343 cumulative IPC: 2.627 (Simulation time: 02 hr 14 min 12 sec)
Heartbeat CPU 0 instructions: 350000000 cycles: 125900235 heartbeat IPC: 3.329 cumulative IPC: 2.645 (Simulation time: 02 hr 17 min 20 sec)
Heartbeat CPU 0 instructions: 360000004 cycles: 128695899 heartbeat IPC: 3.577 cumulative IPC: 2.668 (Simulation time: 02 hr 20 min 24 sec)
Heartbeat CPU 0 instructions: 370000001 cycles: 131468861 heartbeat IPC: 3.606 cumulative IPC: 2.69 (Simulation time: 02 hr 23 min 23 sec)
Heartbeat CPU 0 instructions: 380000004 cycles: 134281734 heartbeat IPC: 3.555 cumulative IPC: 2.71 (Simulation time: 02 hr 26 min 29 sec)
Heartbeat CPU 0 instructions: 390000002 cycles: 137236642 heartbeat IPC: 3.384 cumulative IPC: 2.726 (Simulation time: 02 hr 29 min 49 sec)
Heartbeat CPU 0 instructions: 400000000 cycles: 140181191 heartbeat IPC: 3.396 cumulative IPC: 2.741 (Simulation time: 02 hr 33 min 08 sec)
Heartbeat CPU 0 instructions: 410000000 cycles: 145979722 heartbeat IPC: 1.725 cumulative IPC: 2.697 (Simulation time: 02 hr 37 min 39 sec)
Heartbeat CPU 0 instructions: 420000003 cycles: 155636050 heartbeat IPC: 1.036 cumulative IPC: 2.585 (Simulation time: 02 hr 43 min 49 sec)
Heartbeat CPU 0 instructions: 430000004 cycles: 161580030 heartbeat IPC: 1.682 cumulative IPC: 2.549 (Simulation time: 02 hr 48 min 37 sec)
Heartbeat CPU 0 instructions: 440000004 cycles: 168056372 heartbeat IPC: 1.544 cumulative IPC: 2.507 (Simulation time: 02 hr 53 min 34 sec)
Heartbeat CPU 0 instructions: 450000000 cycles: 173965477 heartbeat IPC: 1.692 cumulative IPC: 2.477 (Simulation time: 02 hr 58 min 15 sec)
Heartbeat CPU 0 instructions: 460000002 cycles: 185248246 heartbeat IPC: 0.8863 cumulative IPC: 2.373 (Simulation time: 03 hr 05 min 06 sec)
Heartbeat CPU 0 instructions: 470000003 cycles: 193588351 heartbeat IPC: 1.199 cumulative IPC: 2.319 (Simulation time: 03 hr 10 min 49 sec)
Heartbeat CPU 0 instructions: 480000000 cycles: 197008188 heartbeat IPC: 2.924 cumulative IPC: 2.331 (Simulation time: 03 hr 14 min 12 sec)
Heartbeat CPU 0 instructions: 490000001 cycles: 200022492 heartbeat IPC: 3.318 cumulative IPC: 2.346 (Simulation time: 03 hr 17 min 23 sec)
Heartbeat CPU 0 instructions: 500000002 cycles: 202984132 heartbeat IPC: 3.377 cumulative IPC: 2.362 (Simulation time: 03 hr 20 min 25 sec)
Heartbeat CPU 0 instructions: 510000000 cycles: 205836758 heartbeat IPC: 3.506 cumulative IPC: 2.379 (Simulation time: 03 hr 23 min 32 sec)
Heartbeat CPU 0 instructions: 520000000 cycles: 208733129 heartbeat IPC: 3.453 cumulative IPC: 2.395 (Simulation time: 03 hr 26 min 41 sec)
Heartbeat CPU 0 instructions: 530000001 cycles: 217780937 heartbeat IPC: 1.105 cumulative IPC: 2.338 (Simulation time: 03 hr 32 min 35 sec)
Heartbeat CPU 0 instructions: 540000000 cycles: 228176499 heartbeat IPC: 0.9619 cumulative IPC: 2.272 (Simulation time: 03 hr 39 min 00 sec)
Heartbeat CPU 0 instructions: 550000004 cycles: 240267628 heartbeat IPC: 0.8271 cumulative IPC: 2.195 (Simulation time: 03 hr 46 min 09 sec)
Heartbeat CPU 0 instructions: 560000004 cycles: 244190596 heartbeat IPC: 2.549 cumulative IPC: 2.201 (Simulation time: 03 hr 49 min 29 sec)
Heartbeat CPU 0 instructions: 570000002 cycles: 247016662 heartbeat IPC: 3.538 cumulative IPC: 2.217 (Simulation time: 03 hr 52 min 29 sec)
Heartbeat CPU 0 instructions: 580000000 cycles: 249945154 heartbeat IPC: 3.415 cumulative IPC: 2.232 (Simulation time: 03 hr 55 min 36 sec)
Heartbeat CPU 0 instructions: 590000001 cycles: 252869990 heartbeat IPC: 3.419 cumulative IPC: 2.247 (Simulation time: 03 hr 58 min 36 sec)
Heartbeat CPU 0 instructions: 600000003 cycles: 255562092 heartbeat IPC: 3.715 cumulative IPC: 2.263 (Simulation time: 04 hr 01 min 35 sec)
Heartbeat CPU 0 instructions: 610000001 cycles: 258427074 heartbeat IPC: 3.49 cumulative IPC: 2.277 (Simulation time: 04 hr 04 min 28 sec)
Heartbeat CPU 0 instructions: 620000004 cycles: 261378685 heartbeat IPC: 3.388 cumulative IPC: 2.29 (Simulation time: 04 hr 06 min 56 sec)
Heartbeat CPU 0 instructions: 630000002 cycles: 264190191 heartbeat IPC: 3.557 cumulative IPC: 2.304 (Simulation time: 04 hr 09 min 17 sec)
Heartbeat CPU 0 instructions: 640000004 cycles: 267227671 heartbeat IPC: 3.292 cumulative IPC: 2.316 (Simulation time: 04 hr 11 min 41 sec)
Heartbeat CPU 0 instructions: 650000001 cycles: 269931440 heartbeat IPC: 3.699 cumulative IPC: 2.331 (Simulation time: 04 hr 13 min 49 sec)
Simulation finished CPU 0 instructions: 600000001 cycles: 257431379 cumulative IPC: 2.331 (Simulation time: 04 hr 13 min 49 sec)
Simulation complete CPU 0 instructions: 600000001 cycles: 257431379 cumulative IPC: 2.331 (Simulation time: 04 hr 13 min 49 sec)

ChampSim completed all CPUs

=== Simulation ===
CPU 0 runs traces/400.perlbench-50B.champsimtrace.xz
Region of Interest Statistics

CPU 0 cumulative IPC: 2.331 instructions: 600000001 cycles: 257431379
CPU 0 Branch Prediction Accuracy: 99.01% MPKI: 2.04 Average ROB Occupancy at Mispredict: 94.83
Branch type MPKI
BRANCH_DIRECT_JUMP: 0.0176
BRANCH_INDIRECT: 0.38
BRANCH_CONDITIONAL: 1.19
BRANCH_DIRECT_CALL: 0.0067
BRANCH_INDIRECT_CALL: 0.431
BRANCH_RETURN: 0.0161

LLC TOTAL        ACCESS:     511786 HIT:     129913 MISS:     381873
LLC LOAD         ACCESS:     377170 HIT:      96263 MISS:     280907
LLC RFO          ACCESS:      32674 HIT:       7787 MISS:      24887
LLC PREFETCH     ACCESS:          0 HIT:          0 MISS:          0
LLC WRITE        ACCESS:      83753 HIT:      24337 MISS:      59416
LLC TRANSLATION  ACCESS:      18189 HIT:       1526 MISS:      16663
LLC PREFETCH REQUESTED:          0 ISSUED:          0 USEFUL:          0 USELESS:          0
LLC AVERAGE MISS LATENCY: 530.5 cycles
cpu0_DTLB TOTAL        ACCESS:  133134880 HIT:  131782174 MISS:    1352706
cpu0_DTLB LOAD         ACCESS:  133134880 HIT:  131782174 MISS:    1352706
cpu0_DTLB RFO          ACCESS:          0 HIT:          0 MISS:          0
cpu0_DTLB PREFETCH     ACCESS:          0 HIT:          0 MISS:          0
cpu0_DTLB WRITE        ACCESS:          0 HIT:          0 MISS:          0
cpu0_DTLB TRANSLATION  ACCESS:          0 HIT:          0 MISS:          0
cpu0_DTLB PREFETCH REQUESTED:          0 ISSUED:          0 USEFUL:          0 USELESS:          0
cpu0_DTLB AVERAGE MISS LATENCY: 14.32 cycles
cpu0_ITLB TOTAL        ACCESS:    8993845 HIT:    8783521 MISS:     210324
cpu0_ITLB LOAD         ACCESS:    8993845 HIT:    8783521 MISS:     210324
cpu0_ITLB RFO          ACCESS:          0 HIT:          0 MISS:          0
cpu0_ITLB PREFETCH     ACCESS:          0 HIT:          0 MISS:          0
cpu0_ITLB WRITE        ACCESS:          0 HIT:          0 MISS:          0
cpu0_ITLB TRANSLATION  ACCESS:          0 HIT:          0 MISS:          0
cpu0_ITLB PREFETCH REQUESTED:          0 ISSUED:          0 USEFUL:          0 USELESS:          0
cpu0_ITLB AVERAGE MISS LATENCY: 3.392 cycles
cpu0_L1D TOTAL        ACCESS:  178202132 HIT:  175258714 MISS:    2943418
cpu0_L1D LOAD         ACCESS:   92685509 HIT:   90268770 MISS:    2416739
cpu0_L1D RFO          ACCESS:          0 HIT:          0 MISS:          0
cpu0_L1D PREFETCH     ACCESS:          0 HIT:          0 MISS:          0
cpu0_L1D WRITE        ACCESS:   85488098 HIT:   84987937 MISS:     500161
cpu0_L1D TRANSLATION  ACCESS:      28525 HIT:       2007 MISS:      26518
cpu0_L1D PREFETCH REQUESTED:          0 ISSUED:          0 USEFUL:          0 USELESS:          0
cpu0_L1D AVERAGE MISS LATENCY: 67.52 cycles
cpu0_L1I TOTAL        ACCESS:   10513320 HIT:    8613080 MISS:    1900240
cpu0_L1I LOAD         ACCESS:   10513320 HIT:    8613080 MISS:    1900240
cpu0_L1I RFO          ACCESS:          0 HIT:          0 MISS:          0
cpu0_L1I PREFETCH     ACCESS:          0 HIT:          0 MISS:          0
cpu0_L1I WRITE        ACCESS:          0 HIT:          0 MISS:          0
cpu0_L1I TRANSLATION  ACCESS:          0 HIT:          0 MISS:          0
cpu0_L1I PREFETCH REQUESTED:          0 ISSUED:          0 USEFUL:          0 USELESS:          0
cpu0_L1I AVERAGE MISS LATENCY: 13.99 cycles
cpu0_L2C TOTAL        ACCESS:    3236127 HIT:    2807134 MISS:     428993
cpu0_L2C LOAD         ACCESS:    2709182 HIT:    2332012 MISS:     377170
cpu0_L2C RFO          ACCESS:     135553 HIT:     102879 MISS:      32674
cpu0_L2C PREFETCH     ACCESS:          0 HIT:          0 MISS:          0
cpu0_L2C WRITE        ACCESS:     364954 HIT:     363994 MISS:        960
cpu0_L2C TRANSLATION  ACCESS:      26438 HIT:       8249 MISS:      18189
cpu0_L2C PREFETCH REQUESTED:          0 ISSUED:          0 USEFUL:          0 USELESS:          0
cpu0_L2C AVERAGE MISS LATENCY: 492.9 cycles
cpu0_STLB TOTAL        ACCESS:    1010117 HIT:     983431 MISS:      26686
cpu0_STLB LOAD         ACCESS:    1010117 HIT:     983431 MISS:      26686
cpu0_STLB RFO          ACCESS:          0 HIT:          0 MISS:          0
cpu0_STLB PREFETCH     ACCESS:          0 HIT:          0 MISS:          0
cpu0_STLB WRITE        ACCESS:          0 HIT:          0 MISS:          0
cpu0_STLB TRANSLATION  ACCESS:          0 HIT:          0 MISS:          0
cpu0_STLB PREFETCH REQUESTED:          0 ISSUED:          0 USEFUL:          0 USELESS:          0
cpu0_STLB AVERAGE MISS LATENCY: 533.8 cycles

DRAM Statistics

Channel 0 RQ ROW_BUFFER_HIT:      50438
  ROW_BUFFER_MISS:     271722
 AVG DBUS CONGESTED CYCLE: 3.856
WQ ROW_BUFFER_HIT: Channel 0 
  ROW_BUFFER_MISS:       7221
  FULL:      54096
