WARNING: physical memory size is smaller than virtual memory size.

*** ChampSim Multicore Out-of-Order Simulator ***
Warmup Instructions: 50000000
Simulation Instructions: 600000000
Number of CPUs: 1
Page size: 4096

CPU 0 Tage branch predictor
Initialize SIGNATURE TABLE
ST_SET: 1
ST_WAY: 256
ST_TAG_BIT: 16
ST_TAG_MASK: ffff

Initialize PATTERN TABLE
PT_SET: 512
PT_WAY: 4
SIG_DELTA_BIT: 7
C_SIG_BIT: 4
C_DELTA_BIT: 4

Initialize PREFETCH FILTER
FILTER_SET: 1024
Off-chip DRAM Size: 4 GiB Channels: 1 Width: 64-bit Data Race: 3200 MT/s
Heartbeat CPU 0 instructions: 10000001 cycles: 2500318 heartbeat IPC: 3.999 cumulative IPC: 3.999 (Simulation time: 00 hr 04 min 32 sec)
Heartbeat CPU 0 instructions: 20000002 cycles: 5037110 heartbeat IPC: 3.942 cumulative IPC: 3.971 (Simulation time: 00 hr 09 min 05 sec)
Heartbeat CPU 0 instructions: 30000002 cycles: 7537110 heartbeat IPC: 4 cumulative IPC: 3.98 (Simulation time: 00 hr 13 min 14 sec)
Heartbeat CPU 0 instructions: 40000002 cycles: 10037110 heartbeat IPC: 4 cumulative IPC: 3.985 (Simulation time: 00 hr 17 min 22 sec)
Heartbeat CPU 0 instructions: 50000002 cycles: 12537110 heartbeat IPC: 4 cumulative IPC: 3.988 (Simulation time: 00 hr 21 min 35 sec)
Warmup finished CPU 0 instructions: 50000002 cycles: 12537111 cumulative IPC: 3.988 (Simulation time: 00 hr 21 min 35 sec)
Warmup complete CPU 0 instructions: 50000002 cycles: 12537111 cumulative IPC: 3.988 (Simulation time: 00 hr 21 min 35 sec)
Heartbeat CPU 0 instructions: 60000001 cycles: 15575387 heartbeat IPC: 3.291 cumulative IPC: 3.291 (Simulation time: 00 hr 26 min 36 sec)
Heartbeat CPU 0 instructions: 70000004 cycles: 18690755 heartbeat IPC: 3.21 cumulative IPC: 3.25 (Simulation time: 00 hr 31 min 42 sec)
Heartbeat CPU 0 instructions: 80000001 cycles: 21788995 heartbeat IPC: 3.228 cumulative IPC: 3.243 (Simulation time: 00 hr 36 min 48 sec)
Heartbeat CPU 0 instructions: 90000001 cycles: 24766919 heartbeat IPC: 3.358 cumulative IPC: 3.271 (Simulation time: 00 hr 41 min 49 sec)
Heartbeat CPU 0 instructions: 100000000 cycles: 27727196 heartbeat IPC: 3.378 cumulative IPC: 3.292 (Simulation time: 00 hr 46 min 58 sec)
Heartbeat CPU 0 instructions: 110000000 cycles: 30706747 heartbeat IPC: 3.356 cumulative IPC: 3.302 (Simulation time: 00 hr 51 min 56 sec)
Heartbeat CPU 0 instructions: 120000001 cycles: 33715546 heartbeat IPC: 3.324 cumulative IPC: 3.305 (Simulation time: 00 hr 56 min 56 sec)
Heartbeat CPU 0 instructions: 130000001 cycles: 36615061 heartbeat IPC: 3.449 cumulative IPC: 3.323 (Simulation time: 01 hr 01 min 57 sec)
Heartbeat CPU 0 instructions: 140000001 cycles: 39706360 heartbeat IPC: 3.235 cumulative IPC: 3.313 (Simulation time: 01 hr 07 min 02 sec)
Heartbeat CPU 0 instructions: 150000001 cycles: 42773672 heartbeat IPC: 3.26 cumulative IPC: 3.307 (Simulation time: 01 hr 12 min 07 sec)
Heartbeat CPU 0 instructions: 160000004 cycles: 45847123 heartbeat IPC: 3.254 cumulative IPC: 3.302 (Simulation time: 01 hr 17 min 11 sec)
Heartbeat CPU 0 instructions: 170000004 cycles: 54166415 heartbeat IPC: 1.202 cumulative IPC: 2.883 (Simulation time: 01 hr 25 min 53 sec)
Heartbeat CPU 0 instructions: 180000004 cycles: 63146553 heartbeat IPC: 1.114 cumulative IPC: 2.569 (Simulation time: 01 hr 35 min 08 sec)
Heartbeat CPU 0 instructions: 190000001 cycles: 71947091 heartbeat IPC: 1.136 cumulative IPC: 2.357 (Simulation time: 01 hr 44 min 12 sec)
Heartbeat CPU 0 instructions: 200000004 cycles: 74947625 heartbeat IPC: 3.333 cumulative IPC: 2.403 (Simulation time: 01 hr 49 min 13 sec)
Heartbeat CPU 0 instructions: 210000001 cycles: 77944911 heartbeat IPC: 3.336 cumulative IPC: 2.446 (Simulation time: 01 hr 54 min 11 sec)
Heartbeat CPU 0 instructions: 220000000 cycles: 80863878 heartbeat IPC: 3.426 cumulative IPC: 2.488 (Simulation time: 01 hr 59 min 08 sec)
Heartbeat CPU 0 instructions: 230000002 cycles: 83954447 heartbeat IPC: 3.236 cumulative IPC: 2.52 (Simulation time: 02 hr 04 min 11 sec)
Heartbeat CPU 0 instructions: 240000003 cycles: 87028249 heartbeat IPC: 3.253 cumulative IPC: 2.551 (Simulation time: 02 hr 09 min 19 sec)
Heartbeat CPU 0 instructions: 250000000 cycles: 90100474 heartbeat IPC: 3.255 cumulative IPC: 2.579 (Simulation time: 02 hr 14 min 22 sec)
Heartbeat CPU 0 instructions: 260000002 cycles: 93120262 heartbeat IPC: 3.311 cumulative IPC: 2.606 (Simulation time: 02 hr 19 min 21 sec)
Heartbeat CPU 0 instructions: 270000002 cycles: 96070266 heartbeat IPC: 3.39 cumulative IPC: 2.634 (Simulation time: 02 hr 24 min 22 sec)
Heartbeat CPU 0 instructions: 280000002 cycles: 98994385 heartbeat IPC: 3.42 cumulative IPC: 2.66 (Simulation time: 02 hr 29 min 21 sec)
Heartbeat CPU 0 instructions: 290000002 cycles: 101992546 heartbeat IPC: 3.335 cumulative IPC: 2.683 (Simulation time: 02 hr 34 min 20 sec)
Heartbeat CPU 0 instructions: 300000003 cycles: 104944127 heartbeat IPC: 3.388 cumulative IPC: 2.705 (Simulation time: 02 hr 39 min 27 sec)
Heartbeat CPU 0 instructions: 310000001 cycles: 108039472 heartbeat IPC: 3.231 cumulative IPC: 2.722 (Simulation time: 02 hr 44 min 31 sec)
Heartbeat CPU 0 instructions: 320000003 cycles: 111100317 heartbeat IPC: 3.267 cumulative IPC: 2.739 (Simulation time: 02 hr 49 min 36 sec)
Heartbeat CPU 0 instructions: 330000003 cycles: 114147708 heartbeat IPC: 3.281 cumulative IPC: 2.756 (Simulation time: 02 hr 54 min 39 sec)
Heartbeat CPU 0 instructions: 340000000 cycles: 122685255 heartbeat IPC: 1.171 cumulative IPC: 2.633 (Simulation time: 03 hr 03 min 32 sec)
Heartbeat CPU 0 instructions: 350000000 cycles: 131944516 heartbeat IPC: 1.08 cumulative IPC: 2.512 (Simulation time: 03 hr 13 min 04 sec)
Heartbeat CPU 0 instructions: 360000004 cycles: 140823731 heartbeat IPC: 1.126 cumulative IPC: 2.416 (Simulation time: 03 hr 22 min 13 sec)
Heartbeat CPU 0 instructions: 370000000 cycles: 143819262 heartbeat IPC: 3.338 cumulative IPC: 2.437 (Simulation time: 03 hr 27 min 11 sec)
Heartbeat CPU 0 instructions: 380000003 cycles: 146770093 heartbeat IPC: 3.389 cumulative IPC: 2.458 (Simulation time: 03 hr 32 min 10 sec)
Heartbeat CPU 0 instructions: 390000002 cycles: 149771662 heartbeat IPC: 3.332 cumulative IPC: 2.478 (Simulation time: 03 hr 37 min 15 sec)
Heartbeat CPU 0 instructions: 400000004 cycles: 152685498 heartbeat IPC: 3.432 cumulative IPC: 2.497 (Simulation time: 03 hr 42 min 24 sec)
Heartbeat CPU 0 instructions: 410000002 cycles: 155666477 heartbeat IPC: 3.355 cumulative IPC: 2.515 (Simulation time: 03 hr 47 min 22 sec)
Heartbeat CPU 0 instructions: 420000003 cycles: 158874216 heartbeat IPC: 3.117 cumulative IPC: 2.528 (Simulation time: 03 hr 52 min 31 sec)
Heartbeat CPU 0 instructions: 430000001 cycles: 161919752 heartbeat IPC: 3.283 cumulative IPC: 2.544 (Simulation time: 03 hr 57 min 33 sec)
Heartbeat CPU 0 instructions: 440000004 cycles: 165094258 heartbeat IPC: 3.15 cumulative IPC: 2.556 (Simulation time: 04 hr 02 min 41 sec)
Heartbeat CPU 0 instructions: 450000002 cycles: 168049332 heartbeat IPC: 3.384 cumulative IPC: 2.572 (Simulation time: 04 hr 07 min 39 sec)
Heartbeat CPU 0 instructions: 460000000 cycles: 171010074 heartbeat IPC: 3.378 cumulative IPC: 2.587 (Simulation time: 04 hr 12 min 39 sec)
Heartbeat CPU 0 instructions: 470000001 cycles: 173890731 heartbeat IPC: 3.471 cumulative IPC: 2.603 (Simulation time: 04 hr 17 min 39 sec)
Heartbeat CPU 0 instructions: 480000003 cycles: 176980276 heartbeat IPC: 3.237 cumulative IPC: 2.615 (Simulation time: 04 hr 22 min 40 sec)
Heartbeat CPU 0 instructions: 490000004 cycles: 179829522 heartbeat IPC: 3.51 cumulative IPC: 2.63 (Simulation time: 04 hr 27 min 34 sec)
Heartbeat CPU 0 instructions: 500000004 cycles: 182831577 heartbeat IPC: 3.331 cumulative IPC: 2.642 (Simulation time: 04 hr 32 min 33 sec)
Heartbeat CPU 0 instructions: 510000003 cycles: 185901550 heartbeat IPC: 3.257 cumulative IPC: 2.653 (Simulation time: 04 hr 37 min 40 sec)
Heartbeat CPU 0 instructions: 520000001 cycles: 188825513 heartbeat IPC: 3.42 cumulative IPC: 2.666 (Simulation time: 04 hr 42 min 42 sec)
Heartbeat CPU 0 instructions: 530000001 cycles: 191859517 heartbeat IPC: 3.296 cumulative IPC: 2.677 (Simulation time: 04 hr 47 min 41 sec)
Heartbeat CPU 0 instructions: 540000000 cycles: 194846187 heartbeat IPC: 3.348 cumulative IPC: 2.688 (Simulation time: 04 hr 52 min 38 sec)
Heartbeat CPU 0 instructions: 550000001 cycles: 197852294 heartbeat IPC: 3.327 cumulative IPC: 2.698 (Simulation time: 04 hr 57 min 39 sec)
Heartbeat CPU 0 instructions: 560000000 cycles: 200991901 heartbeat IPC: 3.185 cumulative IPC: 2.706 (Simulation time: 05 hr 02 min 47 sec)
Heartbeat CPU 0 instructions: 570000004 cycles: 206581755 heartbeat IPC: 1.789 cumulative IPC: 2.68 (Simulation time: 05 hr 09 min 38 sec)
Heartbeat CPU 0 instructions: 580000003 cycles: 216330929 heartbeat IPC: 1.026 cumulative IPC: 2.601 (Simulation time: 05 hr 19 min 33 sec)
Heartbeat CPU 0 instructions: 590000002 cycles: 227861964 heartbeat IPC: 0.8672 cumulative IPC: 2.508 (Simulation time: 05 hr 30 min 25 sec)
Heartbeat CPU 0 instructions: 600000004 cycles: 230970471 heartbeat IPC: 3.217 cumulative IPC: 2.518 (Simulation time: 05 hr 35 min 36 sec)
Heartbeat CPU 0 instructions: 610000002 cycles: 233966172 heartbeat IPC: 3.338 cumulative IPC: 2.529 (Simulation time: 05 hr 40 min 30 sec)
Heartbeat CPU 0 instructions: 620000001 cycles: 236755826 heartbeat IPC: 3.585 cumulative IPC: 2.542 (Simulation time: 05 hr 45 min 35 sec)
Heartbeat CPU 0 instructions: 630000002 cycles: 239755078 heartbeat IPC: 3.334 cumulative IPC: 2.553 (Simulation time: 05 hr 50 min 36 sec)
Heartbeat CPU 0 instructions: 640000004 cycles: 242713571 heartbeat IPC: 3.38 cumulative IPC: 2.563 (Simulation time: 05 hr 55 min 46 sec)
Heartbeat CPU 0 instructions: 650000000 cycles: 245475901 heartbeat IPC: 3.62 cumulative IPC: 2.576 (Simulation time: 06 hr 00 min 39 sec)
Simulation finished CPU 0 instructions: 600000001 cycles: 232938792 cumulative IPC: 2.576 (Simulation time: 06 hr 00 min 39 sec)
Simulation complete CPU 0 instructions: 600000001 cycles: 232938792 cumulative IPC: 2.576 (Simulation time: 06 hr 00 min 39 sec)

ChampSim completed all CPUs

=== Simulation ===
CPU 0 runs traces/400.perlbench-41B.champsimtrace.xz
Region of Interest Statistics

CPU 0 cumulative IPC: 2.576 instructions: 600000001 cycles: 232938792
CPU 0 Branch Prediction Accuracy: 99.19% MPKI: 1.684 Average ROB Occupancy at Mispredict: 102.1
Branch type MPKI
BRANCH_DIRECT_JUMP: 0.0123
BRANCH_INDIRECT: 0.323
BRANCH_CONDITIONAL: 1.14
BRANCH_DIRECT_CALL: 0.0043
BRANCH_INDIRECT_CALL: 0.2
BRANCH_RETURN: 0.00828

LLC TOTAL        ACCESS:     720821 HIT:     197345 MISS:     523476
LLC LOAD         ACCESS:     309597 HIT:      62819 MISS:     246778
LLC RFO          ACCESS:      25105 HIT:       8312 MISS:      16793
LLC PREFETCH     ACCESS:     306371 HIT:      58019 MISS:     248352
LLC WRITE        ACCESS:      63927 HIT:      62779 MISS:       1148
LLC TRANSLATION  ACCESS:      15821 HIT:       5416 MISS:      10405
LLC PREFETCH REQUESTED:     306371 ISSUED:     306371 USEFUL:       3487 USELESS:        276
LLC AVERAGE MISS LATENCY: 380.1 cycles
cpu0_DTLB TOTAL        ACCESS:  129742329 HIT:  129039702 MISS:     702627
cpu0_DTLB LOAD         ACCESS:  129742329 HIT:  129039702 MISS:     702627
cpu0_DTLB RFO          ACCESS:          0 HIT:          0 MISS:          0
cpu0_DTLB PREFETCH     ACCESS:          0 HIT:          0 MISS:          0
cpu0_DTLB WRITE        ACCESS:          0 HIT:          0 MISS:          0
cpu0_DTLB TRANSLATION  ACCESS:          0 HIT:          0 MISS:          0
cpu0_DTLB PREFETCH REQUESTED:          0 ISSUED:          0 USEFUL:          0 USELESS:          0
cpu0_DTLB AVERAGE MISS LATENCY: 17.42 cycles
cpu0_ITLB TOTAL        ACCESS:    4877081 HIT:    4814421 MISS:      62660
cpu0_ITLB LOAD         ACCESS:    4877081 HIT:    4814421 MISS:      62660
cpu0_ITLB RFO          ACCESS:          0 HIT:          0 MISS:          0
cpu0_ITLB PREFETCH     ACCESS:          0 HIT:          0 MISS:          0
cpu0_ITLB WRITE        ACCESS:          0 HIT:          0 MISS:          0
cpu0_ITLB TRANSLATION  ACCESS:          0 HIT:          0 MISS:          0
cpu0_ITLB PREFETCH REQUESTED:          0 ISSUED:          0 USEFUL:          0 USELESS:          0
cpu0_ITLB AVERAGE MISS LATENCY: 7.377 cycles
cpu0_L1D TOTAL        ACCESS:  174340650 HIT:  172935077 MISS:    1405573
cpu0_L1D LOAD         ACCESS:   91320945 HIT:   90236505 MISS:    1084440
cpu0_L1D RFO          ACCESS:          0 HIT:          0 MISS:          0
cpu0_L1D PREFETCH     ACCESS:          0 HIT:          0 MISS:          0
cpu0_L1D WRITE        ACCESS:   82995240 HIT:   82696964 MISS:     298276
cpu0_L1D TRANSLATION  ACCESS:      24465 HIT:       1608 MISS:      22857
cpu0_L1D PREFETCH REQUESTED:          0 ISSUED:          0 USEFUL:          0 USELESS:          0
cpu0_L1D AVERAGE MISS LATENCY: 134.7 cycles
cpu0_L1I TOTAL        ACCESS:    5655525 HIT:    4849471 MISS:     806054
cpu0_L1I LOAD         ACCESS:    5655525 HIT:    4849471 MISS:     806054
cpu0_L1I RFO          ACCESS:          0 HIT:          0 MISS:          0
cpu0_L1I PREFETCH     ACCESS:          0 HIT:          0 MISS:          0
cpu0_L1I WRITE        ACCESS:          0 HIT:          0 MISS:          0
cpu0_L1I TRANSLATION  ACCESS:          0 HIT:          0 MISS:          0
cpu0_L1I PREFETCH REQUESTED:          0 ISSUED:          0 USEFUL:          0 USELESS:          0
cpu0_L1I AVERAGE MISS LATENCY: 13.89 cycles
cpu0_L2C TOTAL        ACCESS:    1381604 HIT:    1030201 MISS:     351403
cpu0_L2C LOAD         ACCESS:    1124042 HIT:     814445 MISS:     309597
cpu0_L2C RFO          ACCESS:      64510 HIT:      39405 MISS:      25105
cpu0_L2C PREFETCH     ACCESS:          0 HIT:          0 MISS:          0
cpu0_L2C WRITE        ACCESS:     170268 HIT:     169388 MISS:        880
cpu0_L2C TRANSLATION  ACCESS:      22784 HIT:       6963 MISS:      15821
cpu0_L2C PREFETCH REQUESTED:          0 ISSUED:          0 USEFUL:          0 USELESS:          0
cpu0_L2C AVERAGE MISS LATENCY: 579.9 cycles
cpu0_STLB TOTAL        ACCESS:     509016 HIT:     486227 MISS:      22789
cpu0_STLB LOAD         ACCESS:     509016 HIT:     486227 MISS:      22789
cpu0_STLB RFO          ACCESS:          0 HIT:          0 MISS:          0
cpu0_STLB PREFETCH     ACCESS:          0 HIT:          0 MISS:          0
cpu0_STLB WRITE        ACCESS:          0 HIT:          0 MISS:          0
cpu0_STLB TRANSLATION  ACCESS:          0 HIT:          0 MISS:          0
cpu0_STLB PREFETCH REQUESTED:          0 ISSUED:          0 USEFUL:          0 USELESS:          0
cpu0_STLB AVERAGE MISS LATENCY: 439 cycles

DRAM Statistics

Channel 0 RQ ROW_BUFFER_HIT:      75156
  ROW_BUFFER_MISS:     305073
 AVG DBUS CONGESTED CYCLE: 3.894
WQ ROW_BUFFER_HIT: Channel 0 
  ROW_BUFFER_MISS:       3752
  FULL:      41121
