WARNING: physical memory size is smaller than virtual memory size.

*** ChampSim Multicore Out-of-Order Simulator ***
Warmup Instructions: 50000000
Simulation Instructions: 600000000
Number of CPUs: 1
Page size: 4096

Off-chip DRAM Size: 4 GiB Channels: 1 Width: 64-bit Data Race: 3200 MT/s
Heartbeat CPU 0 instructions: 10000001 cycles: 2500319 heartbeat IPC: 3.999 cumulative IPC: 3.999 (Simulation time: 00 hr 03 min 42 sec)
Heartbeat CPU 0 instructions: 20000002 cycles: 5037095 heartbeat IPC: 3.942 cumulative IPC: 3.971 (Simulation time: 00 hr 07 min 31 sec)
Heartbeat CPU 0 instructions: 30000002 cycles: 7537095 heartbeat IPC: 4 cumulative IPC: 3.98 (Simulation time: 00 hr 10 min 59 sec)
Heartbeat CPU 0 instructions: 40000002 cycles: 10037095 heartbeat IPC: 4 cumulative IPC: 3.985 (Simulation time: 00 hr 14 min 26 sec)
Heartbeat CPU 0 instructions: 50000002 cycles: 12537095 heartbeat IPC: 4 cumulative IPC: 3.988 (Simulation time: 00 hr 17 min 54 sec)
Warmup finished CPU 0 instructions: 50000002 cycles: 12537096 cumulative IPC: 3.988 (Simulation time: 00 hr 17 min 54 sec)
Warmup complete CPU 0 instructions: 50000002 cycles: 12537096 cumulative IPC: 3.988 (Simulation time: 00 hr 17 min 54 sec)
Heartbeat CPU 0 instructions: 60000000 cycles: 17231475 heartbeat IPC: 2.13 cumulative IPC: 2.13 (Simulation time: 00 hr 23 min 02 sec)
Heartbeat CPU 0 instructions: 70000004 cycles: 21567206 heartbeat IPC: 2.306 cumulative IPC: 2.215 (Simulation time: 00 hr 28 min 13 sec)
Heartbeat CPU 0 instructions: 80000001 cycles: 26232811 heartbeat IPC: 2.143 cumulative IPC: 2.19 (Simulation time: 00 hr 33 min 22 sec)
Heartbeat CPU 0 instructions: 90000001 cycles: 30399186 heartbeat IPC: 2.4 cumulative IPC: 2.239 (Simulation time: 00 hr 38 min 15 sec)
Heartbeat CPU 0 instructions: 100000000 cycles: 34491710 heartbeat IPC: 2.443 cumulative IPC: 2.277 (Simulation time: 00 hr 43 min 02 sec)
Heartbeat CPU 0 instructions: 110000000 cycles: 38752247 heartbeat IPC: 2.347 cumulative IPC: 2.289 (Simulation time: 00 hr 47 min 55 sec)
Heartbeat CPU 0 instructions: 120000001 cycles: 42801745 heartbeat IPC: 2.469 cumulative IPC: 2.313 (Simulation time: 00 hr 52 min 42 sec)
Heartbeat CPU 0 instructions: 130000001 cycles: 46584057 heartbeat IPC: 2.644 cumulative IPC: 2.35 (Simulation time: 00 hr 57 min 25 sec)
Heartbeat CPU 0 instructions: 140000001 cycles: 50791604 heartbeat IPC: 2.377 cumulative IPC: 2.353 (Simulation time: 01 hr 02 min 17 sec)
Heartbeat CPU 0 instructions: 150000001 cycles: 55028475 heartbeat IPC: 2.36 cumulative IPC: 2.353 (Simulation time: 01 hr 07 min 13 sec)
Heartbeat CPU 0 instructions: 160000004 cycles: 59492210 heartbeat IPC: 2.24 cumulative IPC: 2.343 (Simulation time: 01 hr 12 min 12 sec)
Heartbeat CPU 0 instructions: 170000004 cycles: 68806495 heartbeat IPC: 1.074 cumulative IPC: 2.133 (Simulation time: 01 hr 20 min 32 sec)
Heartbeat CPU 0 instructions: 180000004 cycles: 79265105 heartbeat IPC: 0.9562 cumulative IPC: 1.948 (Simulation time: 01 hr 29 min 42 sec)
Heartbeat CPU 0 instructions: 190000001 cycles: 89926844 heartbeat IPC: 0.9379 cumulative IPC: 1.809 (Simulation time: 01 hr 39 min 03 sec)
Heartbeat CPU 0 instructions: 200000004 cycles: 93717942 heartbeat IPC: 2.638 cumulative IPC: 1.848 (Simulation time: 01 hr 43 min 42 sec)
Heartbeat CPU 0 instructions: 210000001 cycles: 97638763 heartbeat IPC: 2.55 cumulative IPC: 1.88 (Simulation time: 01 hr 48 min 27 sec)
Heartbeat CPU 0 instructions: 220000000 cycles: 101599024 heartbeat IPC: 2.525 cumulative IPC: 1.909 (Simulation time: 01 hr 53 min 26 sec)
Heartbeat CPU 0 instructions: 230000002 cycles: 106312458 heartbeat IPC: 2.122 cumulative IPC: 1.919 (Simulation time: 01 hr 58 min 37 sec)
Heartbeat CPU 0 instructions: 240000000 cycles: 110545017 heartbeat IPC: 2.363 cumulative IPC: 1.939 (Simulation time: 02 hr 03 min 34 sec)
Heartbeat CPU 0 instructions: 250000000 cycles: 114884132 heartbeat IPC: 2.305 cumulative IPC: 1.954 (Simulation time: 02 hr 08 min 30 sec)
Heartbeat CPU 0 instructions: 260000000 cycles: 119087138 heartbeat IPC: 2.379 cumulative IPC: 1.971 (Simulation time: 02 hr 13 min 24 sec)
Heartbeat CPU 0 instructions: 270000002 cycles: 122964104 heartbeat IPC: 2.579 cumulative IPC: 1.992 (Simulation time: 02 hr 18 min 06 sec)
Heartbeat CPU 0 instructions: 280000002 cycles: 127140436 heartbeat IPC: 2.394 cumulative IPC: 2.007 (Simulation time: 02 hr 22 min 56 sec)
Heartbeat CPU 0 instructions: 290000001 cycles: 131057565 heartbeat IPC: 2.553 cumulative IPC: 2.025 (Simulation time: 02 hr 27 min 39 sec)
Heartbeat CPU 0 instructions: 300000003 cycles: 134926139 heartbeat IPC: 2.585 cumulative IPC: 2.043 (Simulation time: 02 hr 32 min 27 sec)
Heartbeat CPU 0 instructions: 310000001 cycles: 139077440 heartbeat IPC: 2.409 cumulative IPC: 2.055 (Simulation time: 02 hr 37 min 28 sec)
Heartbeat CPU 0 instructions: 320000003 cycles: 143163172 heartbeat IPC: 2.448 cumulative IPC: 2.067 (Simulation time: 02 hr 42 min 18 sec)
Heartbeat CPU 0 instructions: 330000003 cycles: 147594473 heartbeat IPC: 2.257 cumulative IPC: 2.073 (Simulation time: 02 hr 47 min 18 sec)
Heartbeat CPU 0 instructions: 340000000 cycles: 157136402 heartbeat IPC: 1.048 cumulative IPC: 2.006 (Simulation time: 02 hr 55 min 53 sec)
Heartbeat CPU 0 instructions: 350000000 cycles: 167985565 heartbeat IPC: 0.9217 cumulative IPC: 1.93 (Simulation time: 03 hr 05 min 21 sec)
Heartbeat CPU 0 instructions: 360000004 cycles: 178549120 heartbeat IPC: 0.9467 cumulative IPC: 1.867 (Simulation time: 03 hr 14 min 41 sec)
Heartbeat CPU 0 instructions: 370000000 cycles: 181991408 heartbeat IPC: 2.905 cumulative IPC: 1.888 (Simulation time: 03 hr 19 min 08 sec)
Heartbeat CPU 0 instructions: 380000001 cycles: 185417926 heartbeat IPC: 2.918 cumulative IPC: 1.909 (Simulation time: 03 hr 23 min 38 sec)
Heartbeat CPU 0 instructions: 390000004 cycles: 189163201 heartbeat IPC: 2.67 cumulative IPC: 1.925 (Simulation time: 03 hr 28 min 19 sec)
Heartbeat CPU 0 instructions: 400000004 cycles: 192973592 heartbeat IPC: 2.624 cumulative IPC: 1.94 (Simulation time: 03 hr 32 min 59 sec)
Heartbeat CPU 0 instructions: 410000001 cycles: 196641506 heartbeat IPC: 2.726 cumulative IPC: 1.955 (Simulation time: 03 hr 37 min 35 sec)
Heartbeat CPU 0 instructions: 420000003 cycles: 200775785 heartbeat IPC: 2.419 cumulative IPC: 1.966 (Simulation time: 03 hr 42 min 27 sec)
Heartbeat CPU 0 instructions: 430000001 cycles: 204457675 heartbeat IPC: 2.716 cumulative IPC: 1.98 (Simulation time: 03 hr 47 min 07 sec)
Heartbeat CPU 0 instructions: 440000004 cycles: 208573929 heartbeat IPC: 2.429 cumulative IPC: 1.989 (Simulation time: 03 hr 52 min 00 sec)
Heartbeat CPU 0 instructions: 450000002 cycles: 212304515 heartbeat IPC: 2.681 cumulative IPC: 2.002 (Simulation time: 03 hr 56 min 40 sec)
Heartbeat CPU 0 instructions: 460000000 cycles: 215994419 heartbeat IPC: 2.71 cumulative IPC: 2.015 (Simulation time: 04 hr 01 min 19 sec)
Heartbeat CPU 0 instructions: 470000000 cycles: 219465790 heartbeat IPC: 2.881 cumulative IPC: 2.03 (Simulation time: 04 hr 05 min 56 sec)
Heartbeat CPU 0 instructions: 480000003 cycles: 223351435 heartbeat IPC: 2.574 cumulative IPC: 2.04 (Simulation time: 04 hr 10 min 48 sec)
Heartbeat CPU 0 instructions: 490000000 cycles: 226986023 heartbeat IPC: 2.751 cumulative IPC: 2.052 (Simulation time: 04 hr 15 min 23 sec)
Heartbeat CPU 0 instructions: 500000000 cycles: 230697264 heartbeat IPC: 2.695 cumulative IPC: 2.063 (Simulation time: 04 hr 20 min 01 sec)
Heartbeat CPU 0 instructions: 510000003 cycles: 234441944 heartbeat IPC: 2.67 cumulative IPC: 2.073 (Simulation time: 04 hr 24 min 46 sec)
Heartbeat CPU 0 instructions: 520000001 cycles: 237863272 heartbeat IPC: 2.923 cumulative IPC: 2.086 (Simulation time: 04 hr 29 min 18 sec)
Heartbeat CPU 0 instructions: 530000002 cycles: 241549114 heartbeat IPC: 2.713 cumulative IPC: 2.096 (Simulation time: 04 hr 33 min 54 sec)
Heartbeat CPU 0 instructions: 540000000 cycles: 245095888 heartbeat IPC: 2.819 cumulative IPC: 2.107 (Simulation time: 04 hr 38 min 29 sec)
Heartbeat CPU 0 instructions: 550000001 cycles: 248791121 heartbeat IPC: 2.706 cumulative IPC: 2.116 (Simulation time: 04 hr 43 min 08 sec)
Heartbeat CPU 0 instructions: 560000000 cycles: 252840596 heartbeat IPC: 2.469 cumulative IPC: 2.122 (Simulation time: 04 hr 48 min 04 sec)
Heartbeat CPU 0 instructions: 570000004 cycles: 259252037 heartbeat IPC: 1.56 cumulative IPC: 2.108 (Simulation time: 04 hr 54 min 32 sec)
Heartbeat CPU 0 instructions: 580000003 cycles: 269692929 heartbeat IPC: 0.9578 cumulative IPC: 2.061 (Simulation time: 05 hr 03 min 44 sec)
Heartbeat CPU 0 instructions: 590000002 cycles: 283643120 heartbeat IPC: 0.7168 cumulative IPC: 1.992 (Simulation time: 05 hr 15 min 16 sec)
Heartbeat CPU 0 instructions: 600000000 cycles: 287435124 heartbeat IPC: 2.637 cumulative IPC: 2.001 (Simulation time: 05 hr 19 min 57 sec)
Heartbeat CPU 0 instructions: 610000000 cycles: 291297903 heartbeat IPC: 2.589 cumulative IPC: 2.009 (Simulation time: 05 hr 24 min 33 sec)
Heartbeat CPU 0 instructions: 620000001 cycles: 294730853 heartbeat IPC: 2.913 cumulative IPC: 2.02 (Simulation time: 05 hr 29 min 04 sec)
Heartbeat CPU 0 instructions: 630000002 cycles: 299008987 heartbeat IPC: 2.337 cumulative IPC: 2.025 (Simulation time: 05 hr 34 min 02 sec)
Heartbeat CPU 0 instructions: 640000001 cycles: 302904216 heartbeat IPC: 2.567 cumulative IPC: 2.032 (Simulation time: 05 hr 38 min 48 sec)
Heartbeat CPU 0 instructions: 650000000 cycles: 306655449 heartbeat IPC: 2.666 cumulative IPC: 2.04 (Simulation time: 05 hr 43 min 26 sec)
Simulation finished CPU 0 instructions: 600000001 cycles: 294118355 cumulative IPC: 2.04 (Simulation time: 05 hr 43 min 26 sec)
Simulation complete CPU 0 instructions: 600000001 cycles: 294118355 cumulative IPC: 2.04 (Simulation time: 05 hr 43 min 26 sec)

ChampSim completed all CPUs

=== Simulation ===
CPU 0 runs traces/400.perlbench-41B.champsimtrace.xz
Region of Interest Statistics

CPU 0 cumulative IPC: 2.04 instructions: 600000001 cycles: 294118355
CPU 0 Branch Prediction Accuracy: 96.56% MPKI: 7.112 Average ROB Occupancy at Mispredict: 47.32
Branch type MPKI
BRANCH_DIRECT_JUMP: 0.0123
BRANCH_INDIRECT: 0.323
BRANCH_CONDITIONAL: 6.56
BRANCH_DIRECT_CALL: 0.0043
BRANCH_INDIRECT_CALL: 0.2
BRANCH_RETURN: 0.00828

LLC TOTAL        ACCESS:     675100 HIT:     260265 MISS:     414835
LLC LOAD         ACCESS:     308459 HIT:     139776 MISS:     168683
LLC RFO          ACCESS:      25085 HIT:       7514 MISS:      17571
LLC PREFETCH     ACCESS:     262175 HIT:      87119 MISS:     175056
LLC WRITE        ACCESS:      63760 HIT:      24741 MISS:      39019
LLC TRANSLATION  ACCESS:      15621 HIT:       1115 MISS:      14506
LLC PREFETCH REQUESTED:     262190 ISSUED:     262175 USEFUL:      28718 USELESS:     136069
LLC AVERAGE MISS LATENCY: 665.1 cycles
cpu0_DTLB TOTAL        ACCESS:  141874498 HIT:  141188797 MISS:     685701
cpu0_DTLB LOAD         ACCESS:  141874498 HIT:  141188797 MISS:     685701
cpu0_DTLB RFO          ACCESS:          0 HIT:          0 MISS:          0
cpu0_DTLB PREFETCH     ACCESS:          0 HIT:          0 MISS:          0
cpu0_DTLB WRITE        ACCESS:          0 HIT:          0 MISS:          0
cpu0_DTLB TRANSLATION  ACCESS:          0 HIT:          0 MISS:          0
cpu0_DTLB PREFETCH REQUESTED:          0 ISSUED:          0 USEFUL:          0 USELESS:          0
cpu0_DTLB AVERAGE MISS LATENCY: 20.69 cycles
cpu0_ITLB TOTAL        ACCESS:    4861288 HIT:    4807985 MISS:      53303
cpu0_ITLB LOAD         ACCESS:    4861288 HIT:    4807985 MISS:      53303
cpu0_ITLB RFO          ACCESS:          0 HIT:          0 MISS:          0
cpu0_ITLB PREFETCH     ACCESS:          0 HIT:          0 MISS:          0
cpu0_ITLB WRITE        ACCESS:          0 HIT:          0 MISS:          0
cpu0_ITLB TRANSLATION  ACCESS:          0 HIT:          0 MISS:          0
cpu0_ITLB PREFETCH REQUESTED:          0 ISSUED:          0 USEFUL:          0 USELESS:          0
cpu0_ITLB AVERAGE MISS LATENCY: 8.77 cycles
cpu0_L1D TOTAL        ACCESS:  188554914 HIT:  187232012 MISS:    1322902
cpu0_L1D LOAD         ACCESS:  105187072 HIT:  104174670 MISS:    1012402
cpu0_L1D RFO          ACCESS:          0 HIT:          0 MISS:          0
cpu0_L1D PREFETCH     ACCESS:          0 HIT:          0 MISS:          0
cpu0_L1D WRITE        ACCESS:   83343377 HIT:   83055732 MISS:     287645
cpu0_L1D TRANSLATION  ACCESS:      24465 HIT:       1610 MISS:      22855
cpu0_L1D PREFETCH REQUESTED:          0 ISSUED:          0 USEFUL:          0 USELESS:          0
cpu0_L1D AVERAGE MISS LATENCY: 106.1 cycles
cpu0_L1I TOTAL        ACCESS:    5598434 HIT:    4854392 MISS:     744042
cpu0_L1I LOAD         ACCESS:    5598434 HIT:    4854392 MISS:     744042
cpu0_L1I RFO          ACCESS:          0 HIT:          0 MISS:          0
cpu0_L1I PREFETCH     ACCESS:          0 HIT:          0 MISS:          0
cpu0_L1I WRITE        ACCESS:          0 HIT:          0 MISS:          0
cpu0_L1I TRANSLATION  ACCESS:          0 HIT:          0 MISS:          0
cpu0_L1I PREFETCH REQUESTED:          0 ISSUED:          0 USEFUL:          0 USELESS:          0
cpu0_L1I AVERAGE MISS LATENCY: 13.52 cycles
cpu0_L2C TOTAL        ACCESS:    1380868 HIT:    1030870 MISS:     349998
cpu0_L2C LOAD         ACCESS:    1124759 HIT:     816300 MISS:     308459
cpu0_L2C RFO          ACCESS:      63792 HIT:      38707 MISS:      25085
cpu0_L2C PREFETCH     ACCESS:          0 HIT:          0 MISS:          0
cpu0_L2C WRITE        ACCESS:     169533 HIT:     168700 MISS:        833
cpu0_L2C TRANSLATION  ACCESS:      22784 HIT:       7163 MISS:      15621
cpu0_L2C PREFETCH REQUESTED:          0 ISSUED:          0 USEFUL:          0 USELESS:          0
cpu0_L2C AVERAGE MISS LATENCY: 408.8 cycles
cpu0_STLB TOTAL        ACCESS:     507125 HIT:     484331 MISS:      22794
cpu0_STLB LOAD         ACCESS:     507125 HIT:     484331 MISS:      22794
cpu0_STLB RFO          ACCESS:          0 HIT:          0 MISS:          0
cpu0_STLB PREFETCH     ACCESS:          0 HIT:          0 MISS:          0
cpu0_STLB WRITE        ACCESS:          0 HIT:          0 MISS:          0
cpu0_STLB TRANSLATION  ACCESS:          0 HIT:          0 MISS:          0
cpu0_STLB PREFETCH REQUESTED:          0 ISSUED:          0 USEFUL:          0 USELESS:          0
cpu0_STLB AVERAGE MISS LATENCY: 512.7 cycles

DRAM Statistics

Channel 0 RQ ROW_BUFFER_HIT:     110502
  ROW_BUFFER_MISS:     260126
 AVG DBUS CONGESTED CYCLE: 3.895
WQ ROW_BUFFER_HIT: Channel 0 
  ROW_BUFFER_MISS:       6550
  FULL:      34113
