WARNING: physical memory size is smaller than virtual memory size.

*** ChampSim Multicore Out-of-Order Simulator ***
Warmup Instructions: 50000000
Simulation Instructions: 600000000
Number of CPUs: 1
Page size: 4096

Off-chip DRAM Size: 4 GiB Channels: 1 Width: 64-bit Data Race: 3200 MT/s
Heartbeat CPU 0 instructions: 10000001 cycles: 2500318 heartbeat IPC: 3.999 cumulative IPC: 3.999 (Simulation time: 00 hr 04 min 00 sec)
Heartbeat CPU 0 instructions: 20000002 cycles: 5037103 heartbeat IPC: 3.942 cumulative IPC: 3.971 (Simulation time: 00 hr 07 min 54 sec)
Heartbeat CPU 0 instructions: 30000002 cycles: 7537103 heartbeat IPC: 4 cumulative IPC: 3.98 (Simulation time: 00 hr 11 min 24 sec)
Heartbeat CPU 0 instructions: 40000002 cycles: 10037103 heartbeat IPC: 4 cumulative IPC: 3.985 (Simulation time: 00 hr 14 min 57 sec)
Heartbeat CPU 0 instructions: 50000002 cycles: 12537103 heartbeat IPC: 4 cumulative IPC: 3.988 (Simulation time: 00 hr 18 min 29 sec)
Warmup finished CPU 0 instructions: 50000002 cycles: 12537104 cumulative IPC: 3.988 (Simulation time: 00 hr 18 min 29 sec)
Warmup complete CPU 0 instructions: 50000002 cycles: 12537104 cumulative IPC: 3.988 (Simulation time: 00 hr 18 min 29 sec)
Heartbeat CPU 0 instructions: 60000000 cycles: 17158326 heartbeat IPC: 2.164 cumulative IPC: 2.164 (Simulation time: 00 hr 23 min 41 sec)
Heartbeat CPU 0 instructions: 70000004 cycles: 21437491 heartbeat IPC: 2.337 cumulative IPC: 2.247 (Simulation time: 00 hr 28 min 46 sec)
Heartbeat CPU 0 instructions: 80000001 cycles: 26044400 heartbeat IPC: 2.171 cumulative IPC: 2.221 (Simulation time: 00 hr 33 min 59 sec)
Heartbeat CPU 0 instructions: 90000001 cycles: 30170292 heartbeat IPC: 2.424 cumulative IPC: 2.268 (Simulation time: 00 hr 38 min 53 sec)
Heartbeat CPU 0 instructions: 100000000 cycles: 34228892 heartbeat IPC: 2.464 cumulative IPC: 2.305 (Simulation time: 00 hr 43 min 48 sec)
Heartbeat CPU 0 instructions: 110000000 cycles: 38470385 heartbeat IPC: 2.358 cumulative IPC: 2.314 (Simulation time: 00 hr 48 min 50 sec)
Heartbeat CPU 0 instructions: 120000001 cycles: 42485220 heartbeat IPC: 2.491 cumulative IPC: 2.337 (Simulation time: 00 hr 53 min 45 sec)
Heartbeat CPU 0 instructions: 130000001 cycles: 46229551 heartbeat IPC: 2.671 cumulative IPC: 2.374 (Simulation time: 00 hr 58 min 39 sec)
Heartbeat CPU 0 instructions: 140000001 cycles: 50396794 heartbeat IPC: 2.4 cumulative IPC: 2.377 (Simulation time: 01 hr 03 min 39 sec)
Heartbeat CPU 0 instructions: 150000001 cycles: 54604461 heartbeat IPC: 2.377 cumulative IPC: 2.377 (Simulation time: 01 hr 08 min 40 sec)
Heartbeat CPU 0 instructions: 160000004 cycles: 59031830 heartbeat IPC: 2.259 cumulative IPC: 2.366 (Simulation time: 01 hr 14 min 05 sec)
Heartbeat CPU 0 instructions: 170000004 cycles: 67059336 heartbeat IPC: 1.246 cumulative IPC: 2.201 (Simulation time: 01 hr 21 min 47 sec)
Heartbeat CPU 0 instructions: 180000004 cycles: 75563881 heartbeat IPC: 1.176 cumulative IPC: 2.063 (Simulation time: 01 hr 30 min 05 sec)
Heartbeat CPU 0 instructions: 190000001 cycles: 86169978 heartbeat IPC: 0.9429 cumulative IPC: 1.901 (Simulation time: 01 hr 39 min 02 sec)
Heartbeat CPU 0 instructions: 200000004 cycles: 89959900 heartbeat IPC: 2.639 cumulative IPC: 1.937 (Simulation time: 01 hr 43 min 27 sec)
Heartbeat CPU 0 instructions: 210000001 cycles: 93885057 heartbeat IPC: 2.548 cumulative IPC: 1.967 (Simulation time: 01 hr 47 min 55 sec)
Heartbeat CPU 0 instructions: 220000000 cycles: 97852265 heartbeat IPC: 2.521 cumulative IPC: 1.993 (Simulation time: 01 hr 52 min 21 sec)
Heartbeat CPU 0 instructions: 230000002 cycles: 102540004 heartbeat IPC: 2.133 cumulative IPC: 2 (Simulation time: 01 hr 57 min 13 sec)
Heartbeat CPU 0 instructions: 240000000 cycles: 106741257 heartbeat IPC: 2.38 cumulative IPC: 2.017 (Simulation time: 02 hr 01 min 48 sec)
Heartbeat CPU 0 instructions: 250000000 cycles: 111071133 heartbeat IPC: 2.31 cumulative IPC: 2.03 (Simulation time: 02 hr 06 min 26 sec)
Heartbeat CPU 0 instructions: 260000000 cycles: 115268214 heartbeat IPC: 2.383 cumulative IPC: 2.044 (Simulation time: 02 hr 11 min 01 sec)
Heartbeat CPU 0 instructions: 270000002 cycles: 119127395 heartbeat IPC: 2.591 cumulative IPC: 2.064 (Simulation time: 02 hr 15 min 25 sec)
Heartbeat CPU 0 instructions: 280000002 cycles: 123307264 heartbeat IPC: 2.392 cumulative IPC: 2.076 (Simulation time: 02 hr 19 min 58 sec)
Heartbeat CPU 0 instructions: 290000001 cycles: 127213081 heartbeat IPC: 2.56 cumulative IPC: 2.093 (Simulation time: 02 hr 24 min 24 sec)
Heartbeat CPU 0 instructions: 300000003 cycles: 131064179 heartbeat IPC: 2.597 cumulative IPC: 2.109 (Simulation time: 02 hr 28 min 51 sec)
Heartbeat CPU 0 instructions: 310000001 cycles: 135205779 heartbeat IPC: 2.415 cumulative IPC: 2.12 (Simulation time: 02 hr 33 min 21 sec)
Heartbeat CPU 0 instructions: 320000003 cycles: 139301877 heartbeat IPC: 2.441 cumulative IPC: 2.13 (Simulation time: 02 hr 37 min 53 sec)
Heartbeat CPU 0 instructions: 330000003 cycles: 143731030 heartbeat IPC: 2.258 cumulative IPC: 2.134 (Simulation time: 02 hr 42 min 33 sec)
Heartbeat CPU 0 instructions: 340000000 cycles: 151941903 heartbeat IPC: 1.218 cumulative IPC: 2.08 (Simulation time: 02 hr 49 min 35 sec)
Heartbeat CPU 0 instructions: 350000000 cycles: 161041701 heartbeat IPC: 1.099 cumulative IPC: 2.02 (Simulation time: 02 hr 57 min 18 sec)
Heartbeat CPU 0 instructions: 360000004 cycles: 171621375 heartbeat IPC: 0.9452 cumulative IPC: 1.949 (Simulation time: 03 hr 05 min 52 sec)
Heartbeat CPU 0 instructions: 370000000 cycles: 175072386 heartbeat IPC: 2.898 cumulative IPC: 1.969 (Simulation time: 03 hr 10 min 08 sec)
Heartbeat CPU 0 instructions: 380000001 cycles: 178498174 heartbeat IPC: 2.919 cumulative IPC: 1.988 (Simulation time: 03 hr 14 min 26 sec)
Heartbeat CPU 0 instructions: 390000004 cycles: 182251571 heartbeat IPC: 2.664 cumulative IPC: 2.003 (Simulation time: 03 hr 18 min 49 sec)
Heartbeat CPU 0 instructions: 400000004 cycles: 186065942 heartbeat IPC: 2.622 cumulative IPC: 2.017 (Simulation time: 03 hr 23 min 11 sec)
Heartbeat CPU 0 instructions: 410000001 cycles: 189726409 heartbeat IPC: 2.732 cumulative IPC: 2.032 (Simulation time: 03 hr 27 min 28 sec)
Heartbeat CPU 0 instructions: 420000003 cycles: 193800109 heartbeat IPC: 2.455 cumulative IPC: 2.041 (Simulation time: 03 hr 31 min 56 sec)
Heartbeat CPU 0 instructions: 430000001 cycles: 197477200 heartbeat IPC: 2.72 cumulative IPC: 2.055 (Simulation time: 03 hr 36 min 18 sec)
Heartbeat CPU 0 instructions: 440000004 cycles: 201572111 heartbeat IPC: 2.442 cumulative IPC: 2.063 (Simulation time: 03 hr 40 min 48 sec)
Heartbeat CPU 0 instructions: 450000002 cycles: 205317466 heartbeat IPC: 2.67 cumulative IPC: 2.075 (Simulation time: 03 hr 45 min 07 sec)
Heartbeat CPU 0 instructions: 460000000 cycles: 208996886 heartbeat IPC: 2.718 cumulative IPC: 2.087 (Simulation time: 03 hr 49 min 24 sec)
Heartbeat CPU 0 instructions: 470000000 cycles: 212474045 heartbeat IPC: 2.876 cumulative IPC: 2.101 (Simulation time: 03 hr 53 min 37 sec)
Heartbeat CPU 0 instructions: 480000003 cycles: 216332202 heartbeat IPC: 2.592 cumulative IPC: 2.11 (Simulation time: 03 hr 58 min 01 sec)
Heartbeat CPU 0 instructions: 490000000 cycles: 219970264 heartbeat IPC: 2.749 cumulative IPC: 2.121 (Simulation time: 04 hr 02 min 18 sec)
Heartbeat CPU 0 instructions: 500000000 cycles: 223672686 heartbeat IPC: 2.701 cumulative IPC: 2.131 (Simulation time: 04 hr 06 min 36 sec)
Heartbeat CPU 0 instructions: 510000003 cycles: 227386192 heartbeat IPC: 2.693 cumulative IPC: 2.141 (Simulation time: 04 hr 10 min 59 sec)
Heartbeat CPU 0 instructions: 520000001 cycles: 230812860 heartbeat IPC: 2.918 cumulative IPC: 2.153 (Simulation time: 04 hr 15 min 11 sec)
Heartbeat CPU 0 instructions: 530000002 cycles: 234505247 heartbeat IPC: 2.708 cumulative IPC: 2.162 (Simulation time: 04 hr 19 min 29 sec)
Heartbeat CPU 0 instructions: 540000000 cycles: 238038468 heartbeat IPC: 2.83 cumulative IPC: 2.173 (Simulation time: 04 hr 23 min 54 sec)
Heartbeat CPU 0 instructions: 550000001 cycles: 241747851 heartbeat IPC: 2.696 cumulative IPC: 2.181 (Simulation time: 04 hr 28 min 14 sec)
Heartbeat CPU 0 instructions: 560000000 cycles: 245774973 heartbeat IPC: 2.483 cumulative IPC: 2.187 (Simulation time: 04 hr 32 min 44 sec)
Heartbeat CPU 0 instructions: 570000004 cycles: 252129520 heartbeat IPC: 1.574 cumulative IPC: 2.17 (Simulation time: 04 hr 38 min 43 sec)
Heartbeat CPU 0 instructions: 580000003 cycles: 259713664 heartbeat IPC: 1.319 cumulative IPC: 2.144 (Simulation time: 04 hr 45 min 31 sec)
Heartbeat CPU 0 instructions: 590000002 cycles: 273022787 heartbeat IPC: 0.7514 cumulative IPC: 2.073 (Simulation time: 04 hr 55 min 45 sec)
Heartbeat CPU 0 instructions: 600000000 cycles: 276839926 heartbeat IPC: 2.62 cumulative IPC: 2.081 (Simulation time: 05 hr 00 min 15 sec)
Heartbeat CPU 0 instructions: 610000000 cycles: 280704642 heartbeat IPC: 2.588 cumulative IPC: 2.088 (Simulation time: 05 hr 04 min 41 sec)
Heartbeat CPU 0 instructions: 620000001 cycles: 284141733 heartbeat IPC: 2.909 cumulative IPC: 2.099 (Simulation time: 05 hr 08 min 55 sec)
Heartbeat CPU 0 instructions: 630000002 cycles: 288429529 heartbeat IPC: 2.332 cumulative IPC: 2.102 (Simulation time: 05 hr 13 min 46 sec)
Heartbeat CPU 0 instructions: 640000001 cycles: 292330481 heartbeat IPC: 2.563 cumulative IPC: 2.109 (Simulation time: 05 hr 18 min 19 sec)
Heartbeat CPU 0 instructions: 650000000 cycles: 296085547 heartbeat IPC: 2.663 cumulative IPC: 2.116 (Simulation time: 05 hr 22 min 50 sec)
Simulation finished CPU 0 instructions: 600000001 cycles: 283548445 cumulative IPC: 2.116 (Simulation time: 05 hr 22 min 50 sec)
Simulation complete CPU 0 instructions: 600000001 cycles: 283548445 cumulative IPC: 2.116 (Simulation time: 05 hr 22 min 50 sec)

ChampSim completed all CPUs

=== Simulation ===
CPU 0 runs traces/400.perlbench-41B.champsimtrace.xz
Region of Interest Statistics

CPU 0 cumulative IPC: 2.116 instructions: 600000001 cycles: 283548445
CPU 0 Branch Prediction Accuracy: 96.56% MPKI: 7.112 Average ROB Occupancy at Mispredict: 47.14
Branch type MPKI
BRANCH_DIRECT_JUMP: 0.0123
BRANCH_INDIRECT: 0.323
BRANCH_CONDITIONAL: 6.56
BRANCH_DIRECT_CALL: 0.0043
BRANCH_INDIRECT_CALL: 0.2
BRANCH_RETURN: 0.00828

LLC TOTAL        ACCESS:     463952 HIT:     206655 MISS:     257297
LLC LOAD         ACCESS:     309538 HIT:     135389 MISS:     174149
LLC RFO          ACCESS:      25156 HIT:       9987 MISS:      15169
LLC PREFETCH     ACCESS:      49398 HIT:      26858 MISS:      22540
LLC WRITE        ACCESS:      64135 HIT:      31834 MISS:      32301
LLC TRANSLATION  ACCESS:      15725 HIT:       2587 MISS:      13138
LLC PREFETCH REQUESTED:      49398 ISSUED:      49398 USEFUL:      12783 USELESS:       7069
LLC AVERAGE MISS LATENCY: 508.8 cycles
cpu0_DTLB TOTAL        ACCESS:  141887251 HIT:  141202047 MISS:     685204
cpu0_DTLB LOAD         ACCESS:  141887251 HIT:  141202047 MISS:     685204
cpu0_DTLB RFO          ACCESS:          0 HIT:          0 MISS:          0
cpu0_DTLB PREFETCH     ACCESS:          0 HIT:          0 MISS:          0
cpu0_DTLB WRITE        ACCESS:          0 HIT:          0 MISS:          0
cpu0_DTLB TRANSLATION  ACCESS:          0 HIT:          0 MISS:          0
cpu0_DTLB PREFETCH REQUESTED:          0 ISSUED:          0 USEFUL:          0 USELESS:          0
cpu0_DTLB AVERAGE MISS LATENCY: 17.16 cycles
cpu0_ITLB TOTAL        ACCESS:    4859265 HIT:    4805964 MISS:      53301
cpu0_ITLB LOAD         ACCESS:    4859265 HIT:    4805964 MISS:      53301
cpu0_ITLB RFO          ACCESS:          0 HIT:          0 MISS:          0
cpu0_ITLB PREFETCH     ACCESS:          0 HIT:          0 MISS:          0
cpu0_ITLB WRITE        ACCESS:          0 HIT:          0 MISS:          0
cpu0_ITLB TRANSLATION  ACCESS:          0 HIT:          0 MISS:          0
cpu0_ITLB PREFETCH REQUESTED:          0 ISSUED:          0 USEFUL:          0 USELESS:          0
cpu0_ITLB AVERAGE MISS LATENCY: 7.279 cycles
cpu0_L1D TOTAL        ACCESS:  188567948 HIT:  187245065 MISS:    1322883
cpu0_L1D LOAD         ACCESS:  105200120 HIT:  104178628 MISS:    1021492
cpu0_L1D RFO          ACCESS:          0 HIT:          0 MISS:          0
cpu0_L1D PREFETCH     ACCESS:          0 HIT:          0 MISS:          0
cpu0_L1D WRITE        ACCESS:   83343360 HIT:   83064830 MISS:     278530
cpu0_L1D TRANSLATION  ACCESS:      24468 HIT:       1607 MISS:      22861
cpu0_L1D PREFETCH REQUESTED:          0 ISSUED:          0 USEFUL:          0 USELESS:          0
cpu0_L1D AVERAGE MISS LATENCY: 92.09 cycles
cpu0_L1I TOTAL        ACCESS:    5596870 HIT:    4852757 MISS:     744113
cpu0_L1I LOAD         ACCESS:    5596870 HIT:    4852757 MISS:     744113
cpu0_L1I RFO          ACCESS:          0 HIT:          0 MISS:          0
cpu0_L1I PREFETCH     ACCESS:          0 HIT:          0 MISS:          0
cpu0_L1I WRITE        ACCESS:          0 HIT:          0 MISS:          0
cpu0_L1I TRANSLATION  ACCESS:          0 HIT:          0 MISS:          0
cpu0_L1I PREFETCH REQUESTED:          0 ISSUED:          0 USEFUL:          0 USELESS:          0
cpu0_L1I AVERAGE MISS LATENCY: 12.42 cycles
cpu0_L2C TOTAL        ACCESS:    1380810 HIT:    1029516 MISS:     351294
cpu0_L2C LOAD         ACCESS:    1124792 HIT:     815254 MISS:     309538
cpu0_L2C RFO          ACCESS:      63771 HIT:      38615 MISS:      25156
cpu0_L2C PREFETCH     ACCESS:          0 HIT:          0 MISS:          0
cpu0_L2C WRITE        ACCESS:     169458 HIT:     168583 MISS:        875
cpu0_L2C TRANSLATION  ACCESS:      22789 HIT:       7064 MISS:      15725
cpu0_L2C PREFETCH REQUESTED:          0 ISSUED:          0 USEFUL:          0 USELESS:          0
cpu0_L2C AVERAGE MISS LATENCY: 351.4 cycles
cpu0_STLB TOTAL        ACCESS:     507228 HIT:     484432 MISS:      22796
cpu0_STLB LOAD         ACCESS:     507228 HIT:     484432 MISS:      22796
cpu0_STLB RFO          ACCESS:          0 HIT:          0 MISS:          0
cpu0_STLB PREFETCH     ACCESS:          0 HIT:          0 MISS:          0
cpu0_STLB WRITE        ACCESS:          0 HIT:          0 MISS:          0
cpu0_STLB TRANSLATION  ACCESS:          0 HIT:          0 MISS:          0
cpu0_STLB PREFETCH REQUESTED:          0 ISSUED:          0 USEFUL:          0 USELESS:          0
cpu0_STLB AVERAGE MISS LATENCY: 399.1 cycles

DRAM Statistics

Channel 0 RQ ROW_BUFFER_HIT:      34297
  ROW_BUFFER_MISS:     187092
 AVG DBUS CONGESTED CYCLE: 3.819
WQ ROW_BUFFER_HIT: Channel 0 
  ROW_BUFFER_MISS:       7510
  FULL:      27289
