WARNING: physical memory size is smaller than virtual memory size.

*** ChampSim Multicore Out-of-Order Simulator ***
Warmup Instructions: 50000000
Simulation Instructions: 600000000
Number of CPUs: 1
Page size: 4096

Off-chip DRAM Size: 4 GiB Channels: 1 Width: 64-bit Data Race: 3200 MT/s
Heartbeat CPU 0 instructions: 10000000 cycles: 2500061 heartbeat IPC: 4 cumulative IPC: 4 (Simulation time: 00 hr 03 min 17 sec)
Heartbeat CPU 0 instructions: 20000000 cycles: 5000061 heartbeat IPC: 4 cumulative IPC: 4 (Simulation time: 00 hr 06 min 42 sec)
Heartbeat CPU 0 instructions: 30000000 cycles: 7500061 heartbeat IPC: 4 cumulative IPC: 4 (Simulation time: 00 hr 09 min 46 sec)
Heartbeat CPU 0 instructions: 40000000 cycles: 10000061 heartbeat IPC: 4 cumulative IPC: 4 (Simulation time: 00 hr 13 min 09 sec)
Heartbeat CPU 0 instructions: 50000000 cycles: 12500061 heartbeat IPC: 4 cumulative IPC: 4 (Simulation time: 00 hr 16 min 18 sec)
Warmup finished CPU 0 instructions: 50000000 cycles: 12500062 cumulative IPC: 4 (Simulation time: 00 hr 16 min 18 sec)
Warmup complete CPU 0 instructions: 50000000 cycles: 12500062 cumulative IPC: 4 (Simulation time: 00 hr 16 min 18 sec)
Heartbeat CPU 0 instructions: 60000002 cycles: 16896553 heartbeat IPC: 2.275 cumulative IPC: 2.275 (Simulation time: 00 hr 21 min 12 sec)
Heartbeat CPU 0 instructions: 70000003 cycles: 21873166 heartbeat IPC: 2.009 cumulative IPC: 2.134 (Simulation time: 00 hr 26 min 10 sec)
Heartbeat CPU 0 instructions: 80000001 cycles: 27215142 heartbeat IPC: 1.872 cumulative IPC: 2.039 (Simulation time: 00 hr 31 min 11 sec)
Heartbeat CPU 0 instructions: 90000000 cycles: 31509834 heartbeat IPC: 2.328 cumulative IPC: 2.104 (Simulation time: 00 hr 35 min 17 sec)
Heartbeat CPU 0 instructions: 100000003 cycles: 36357541 heartbeat IPC: 2.063 cumulative IPC: 2.096 (Simulation time: 00 hr 39 min 24 sec)
Heartbeat CPU 0 instructions: 110000002 cycles: 41219449 heartbeat IPC: 2.057 cumulative IPC: 2.089 (Simulation time: 00 hr 43 min 22 sec)
Heartbeat CPU 0 instructions: 120000001 cycles: 46211655 heartbeat IPC: 2.003 cumulative IPC: 2.076 (Simulation time: 00 hr 47 min 18 sec)
Heartbeat CPU 0 instructions: 130000003 cycles: 50769930 heartbeat IPC: 2.194 cumulative IPC: 2.09 (Simulation time: 00 hr 50 min 52 sec)
Heartbeat CPU 0 instructions: 140000002 cycles: 55652318 heartbeat IPC: 2.048 cumulative IPC: 2.086 (Simulation time: 00 hr 54 min 25 sec)
Heartbeat CPU 0 instructions: 150000001 cycles: 60310577 heartbeat IPC: 2.147 cumulative IPC: 2.092 (Simulation time: 00 hr 57 min 49 sec)
Heartbeat CPU 0 instructions: 160000000 cycles: 64939148 heartbeat IPC: 2.16 cumulative IPC: 2.098 (Simulation time: 01 hr 01 min 04 sec)
Heartbeat CPU 0 instructions: 170000000 cycles: 70263714 heartbeat IPC: 1.878 cumulative IPC: 2.077 (Simulation time: 01 hr 04 min 25 sec)
Heartbeat CPU 0 instructions: 180000001 cycles: 75977629 heartbeat IPC: 1.75 cumulative IPC: 2.048 (Simulation time: 01 hr 07 min 59 sec)
Heartbeat CPU 0 instructions: 190000002 cycles: 80438699 heartbeat IPC: 2.242 cumulative IPC: 2.061 (Simulation time: 01 hr 11 min 07 sec)
Heartbeat CPU 0 instructions: 200000002 cycles: 85328464 heartbeat IPC: 2.045 cumulative IPC: 2.06 (Simulation time: 01 hr 14 min 20 sec)
Heartbeat CPU 0 instructions: 210000000 cycles: 90326854 heartbeat IPC: 2.001 cumulative IPC: 2.056 (Simulation time: 01 hr 17 min 36 sec)
Heartbeat CPU 0 instructions: 220000001 cycles: 95248212 heartbeat IPC: 2.032 cumulative IPC: 2.054 (Simulation time: 01 hr 20 min 57 sec)
Heartbeat CPU 0 instructions: 230000002 cycles: 100486259 heartbeat IPC: 1.909 cumulative IPC: 2.046 (Simulation time: 01 hr 24 min 26 sec)
Heartbeat CPU 0 instructions: 240000001 cycles: 105441205 heartbeat IPC: 2.018 cumulative IPC: 2.044 (Simulation time: 01 hr 27 min 46 sec)
Heartbeat CPU 0 instructions: 250000003 cycles: 110610408 heartbeat IPC: 1.935 cumulative IPC: 2.039 (Simulation time: 01 hr 31 min 07 sec)
Heartbeat CPU 0 instructions: 260000001 cycles: 115470700 heartbeat IPC: 2.057 cumulative IPC: 2.039 (Simulation time: 01 hr 34 min 15 sec)
Heartbeat CPU 0 instructions: 270000000 cycles: 122778689 heartbeat IPC: 1.368 cumulative IPC: 1.995 (Simulation time: 01 hr 38 min 39 sec)
Heartbeat CPU 0 instructions: 280000000 cycles: 133859367 heartbeat IPC: 0.9025 cumulative IPC: 1.895 (Simulation time: 01 hr 44 min 33 sec)
Heartbeat CPU 0 instructions: 290000001 cycles: 144771027 heartbeat IPC: 0.9165 cumulative IPC: 1.814 (Simulation time: 01 hr 50 min 29 sec)
Heartbeat CPU 0 instructions: 300000003 cycles: 152526222 heartbeat IPC: 1.289 cumulative IPC: 1.785 (Simulation time: 01 hr 55 min 10 sec)
Heartbeat CPU 0 instructions: 310000004 cycles: 164344063 heartbeat IPC: 0.8462 cumulative IPC: 1.712 (Simulation time: 02 hr 01 min 24 sec)
Heartbeat CPU 0 instructions: 320000004 cycles: 170232752 heartbeat IPC: 1.698 cumulative IPC: 1.712 (Simulation time: 02 hr 05 min 14 sec)
Heartbeat CPU 0 instructions: 330000000 cycles: 175507339 heartbeat IPC: 1.896 cumulative IPC: 1.718 (Simulation time: 02 hr 08 min 40 sec)
Heartbeat CPU 0 instructions: 340000001 cycles: 180616283 heartbeat IPC: 1.957 cumulative IPC: 1.725 (Simulation time: 02 hr 12 min 11 sec)
Heartbeat CPU 0 instructions: 350000000 cycles: 185913287 heartbeat IPC: 1.888 cumulative IPC: 1.73 (Simulation time: 02 hr 15 min 43 sec)
Heartbeat CPU 0 instructions: 360000003 cycles: 190961213 heartbeat IPC: 1.981 cumulative IPC: 1.737 (Simulation time: 02 hr 19 min 10 sec)
Heartbeat CPU 0 instructions: 370000001 cycles: 195919569 heartbeat IPC: 2.017 cumulative IPC: 1.745 (Simulation time: 02 hr 22 min 24 sec)
Heartbeat CPU 0 instructions: 380000004 cycles: 201167369 heartbeat IPC: 1.906 cumulative IPC: 1.749 (Simulation time: 02 hr 25 min 44 sec)
Heartbeat CPU 0 instructions: 390000002 cycles: 206528781 heartbeat IPC: 1.865 cumulative IPC: 1.752 (Simulation time: 02 hr 29 min 16 sec)
Heartbeat CPU 0 instructions: 400000000 cycles: 211886751 heartbeat IPC: 1.866 cumulative IPC: 1.755 (Simulation time: 02 hr 32 min 45 sec)
Heartbeat CPU 0 instructions: 410000000 cycles: 219746337 heartbeat IPC: 1.272 cumulative IPC: 1.737 (Simulation time: 02 hr 37 min 21 sec)
Heartbeat CPU 0 instructions: 420000001 cycles: 230715908 heartbeat IPC: 0.9116 cumulative IPC: 1.696 (Simulation time: 02 hr 43 min 20 sec)
Heartbeat CPU 0 instructions: 430000000 cycles: 238440502 heartbeat IPC: 1.295 cumulative IPC: 1.682 (Simulation time: 02 hr 48 min 13 sec)
Heartbeat CPU 0 instructions: 440000002 cycles: 246855509 heartbeat IPC: 1.188 cumulative IPC: 1.664 (Simulation time: 02 hr 53 min 10 sec)
Heartbeat CPU 0 instructions: 450000000 cycles: 254398961 heartbeat IPC: 1.326 cumulative IPC: 1.654 (Simulation time: 02 hr 57 min 54 sec)
Heartbeat CPU 0 instructions: 460000002 cycles: 267689838 heartbeat IPC: 0.7524 cumulative IPC: 1.607 (Simulation time: 03 hr 04 min 48 sec)
Heartbeat CPU 0 instructions: 470000000 cycles: 278567277 heartbeat IPC: 0.9193 cumulative IPC: 1.579 (Simulation time: 03 hr 10 min 38 sec)
Heartbeat CPU 0 instructions: 480000000 cycles: 284056314 heartbeat IPC: 1.822 cumulative IPC: 1.583 (Simulation time: 03 hr 14 min 11 sec)
Heartbeat CPU 0 instructions: 490000001 cycles: 289535184 heartbeat IPC: 1.825 cumulative IPC: 1.588 (Simulation time: 03 hr 17 min 52 sec)
Heartbeat CPU 0 instructions: 500000002 cycles: 294992071 heartbeat IPC: 1.833 cumulative IPC: 1.593 (Simulation time: 03 hr 21 min 27 sec)
Heartbeat CPU 0 instructions: 510000000 cycles: 300454871 heartbeat IPC: 1.831 cumulative IPC: 1.597 (Simulation time: 03 hr 25 min 02 sec)
Heartbeat CPU 0 instructions: 520000000 cycles: 305981786 heartbeat IPC: 1.809 cumulative IPC: 1.601 (Simulation time: 03 hr 28 min 44 sec)
Heartbeat CPU 0 instructions: 530000001 cycles: 317124677 heartbeat IPC: 0.8974 cumulative IPC: 1.576 (Simulation time: 03 hr 34 min 40 sec)
Heartbeat CPU 0 instructions: 540000000 cycles: 328894038 heartbeat IPC: 0.8497 cumulative IPC: 1.549 (Simulation time: 03 hr 40 min 45 sec)
Heartbeat CPU 0 instructions: 550000002 cycles: 343343605 heartbeat IPC: 0.6921 cumulative IPC: 1.511 (Simulation time: 03 hr 47 min 42 sec)
Heartbeat CPU 0 instructions: 560000004 cycles: 348564836 heartbeat IPC: 1.915 cumulative IPC: 1.518 (Simulation time: 03 hr 50 min 58 sec)
Heartbeat CPU 0 instructions: 570000001 cycles: 352979337 heartbeat IPC: 2.265 cumulative IPC: 1.527 (Simulation time: 03 hr 53 min 48 sec)
Heartbeat CPU 0 instructions: 580000003 cycles: 357221111 heartbeat IPC: 2.358 cumulative IPC: 1.537 (Simulation time: 03 hr 56 min 11 sec)
Heartbeat CPU 0 instructions: 590000001 cycles: 362121900 heartbeat IPC: 2.04 cumulative IPC: 1.545 (Simulation time: 03 hr 58 min 42 sec)
Heartbeat CPU 0 instructions: 600000003 cycles: 366761388 heartbeat IPC: 2.155 cumulative IPC: 1.553 (Simulation time: 04 hr 01 min 09 sec)
Heartbeat CPU 0 instructions: 610000001 cycles: 371623639 heartbeat IPC: 2.057 cumulative IPC: 1.559 (Simulation time: 04 hr 03 min 23 sec)
Heartbeat CPU 0 instructions: 620000000 cycles: 376687020 heartbeat IPC: 1.975 cumulative IPC: 1.565 (Simulation time: 04 hr 04 min 56 sec)
Heartbeat CPU 0 instructions: 630000002 cycles: 380929503 heartbeat IPC: 2.357 cumulative IPC: 1.574 (Simulation time: 04 hr 06 min 12 sec)
Heartbeat CPU 0 instructions: 640000004 cycles: 386241755 heartbeat IPC: 1.882 cumulative IPC: 1.579 (Simulation time: 04 hr 07 min 23 sec)
Heartbeat CPU 0 instructions: 650000001 cycles: 390996798 heartbeat IPC: 2.103 cumulative IPC: 1.585 (Simulation time: 04 hr 08 min 20 sec)
Simulation finished CPU 0 instructions: 600000001 cycles: 378496737 cumulative IPC: 1.585 (Simulation time: 04 hr 08 min 20 sec)
Simulation complete CPU 0 instructions: 600000001 cycles: 378496737 cumulative IPC: 1.585 (Simulation time: 04 hr 08 min 20 sec)

ChampSim completed all CPUs

=== Simulation ===
CPU 0 runs traces/400.perlbench-50B.champsimtrace.xz
Region of Interest Statistics

CPU 0 cumulative IPC: 1.585 instructions: 600000001 cycles: 378496737
CPU 0 Branch Prediction Accuracy: 93.83% MPKI: 12.71 Average ROB Occupancy at Mispredict: 29.36
Branch type MPKI
BRANCH_DIRECT_JUMP: 0.0176
BRANCH_INDIRECT: 0.38
BRANCH_CONDITIONAL: 11.9
BRANCH_DIRECT_CALL: 0.0067
BRANCH_INDIRECT_CALL: 0.431
BRANCH_RETURN: 0.0161

LLC TOTAL        ACCESS:     888146 HIT:     315907 MISS:     572239
LLC LOAD         ACCESS:     376730 HIT:     141870 MISS:     234860
LLC RFO          ACCESS:      32599 HIT:      11365 MISS:      21234
LLC PREFETCH     ACCESS:     376730 HIT:     126720 MISS:     250010
LLC WRITE        ACCESS:      84000 HIT:      35029 MISS:      48971
LLC TRANSLATION  ACCESS:      18087 HIT:        923 MISS:      17164
LLC PREFETCH REQUESTED:     376730 ISSUED:     376730 USEFUL:      61696 USELESS:     129398
LLC AVERAGE MISS LATENCY: 507.6 cycles
cpu0_DTLB TOTAL        ACCESS:  156740828 HIT:  155440161 MISS:    1300667
cpu0_DTLB LOAD         ACCESS:  156740828 HIT:  155440161 MISS:    1300667
cpu0_DTLB RFO          ACCESS:          0 HIT:          0 MISS:          0
cpu0_DTLB PREFETCH     ACCESS:          0 HIT:          0 MISS:          0
cpu0_DTLB WRITE        ACCESS:          0 HIT:          0 MISS:          0
cpu0_DTLB TRANSLATION  ACCESS:          0 HIT:          0 MISS:          0
cpu0_DTLB PREFETCH REQUESTED:          0 ISSUED:          0 USEFUL:          0 USELESS:          0
cpu0_DTLB AVERAGE MISS LATENCY: 15.41 cycles
cpu0_ITLB TOTAL        ACCESS:    8932909 HIT:    8734090 MISS:     198819
cpu0_ITLB LOAD         ACCESS:    8932909 HIT:    8734090 MISS:     198819
cpu0_ITLB RFO          ACCESS:          0 HIT:          0 MISS:          0
cpu0_ITLB PREFETCH     ACCESS:          0 HIT:          0 MISS:          0
cpu0_ITLB WRITE        ACCESS:          0 HIT:          0 MISS:          0
cpu0_ITLB TRANSLATION  ACCESS:          0 HIT:          0 MISS:          0
cpu0_ITLB PREFETCH REQUESTED:          0 ISSUED:          0 USEFUL:          0 USELESS:          0
cpu0_ITLB AVERAGE MISS LATENCY: 3.808 cycles
cpu0_L1D TOTAL        ACCESS:  203618753 HIT:  200778344 MISS:    2840409
cpu0_L1D LOAD         ACCESS:  117941670 HIT:  115607808 MISS:    2333862
cpu0_L1D RFO          ACCESS:          0 HIT:          0 MISS:          0
cpu0_L1D PREFETCH     ACCESS:          0 HIT:          0 MISS:          0
cpu0_L1D WRITE        ACCESS:   85648545 HIT:   85168547 MISS:     479998
cpu0_L1D TRANSLATION  ACCESS:      28538 HIT:       1989 MISS:      26549
cpu0_L1D PREFETCH REQUESTED:          0 ISSUED:          0 USEFUL:          0 USELESS:          0
cpu0_L1D AVERAGE MISS LATENCY: 59.66 cycles
cpu0_L1I TOTAL        ACCESS:   10371588 HIT:    8572652 MISS:    1798936
cpu0_L1I LOAD         ACCESS:   10371588 HIT:    8572652 MISS:    1798936
cpu0_L1I RFO          ACCESS:          0 HIT:          0 MISS:          0
cpu0_L1I PREFETCH     ACCESS:          0 HIT:          0 MISS:          0
cpu0_L1I WRITE        ACCESS:          0 HIT:          0 MISS:          0
cpu0_L1I TRANSLATION  ACCESS:          0 HIT:          0 MISS:          0
cpu0_L1I PREFETCH REQUESTED:          0 ISSUED:          0 USEFUL:          0 USELESS:          0
cpu0_L1I AVERAGE MISS LATENCY: 14.13 cycles
cpu0_L2C TOTAL        ACCESS:    3235380 HIT:    2807071 MISS:     428309
cpu0_L2C LOAD         ACCESS:    2711765 HIT:    2335035 MISS:     376730
cpu0_L2C RFO          ACCESS:     133679 HIT:     101080 MISS:      32599
cpu0_L2C PREFETCH     ACCESS:          0 HIT:          0 MISS:          0
cpu0_L2C WRITE        ACCESS:     363475 HIT:     362582 MISS:        893
cpu0_L2C TRANSLATION  ACCESS:      26461 HIT:       8374 MISS:      18087
cpu0_L2C PREFETCH REQUESTED:          0 ISSUED:          0 USEFUL:          0 USELESS:          0
cpu0_L2C AVERAGE MISS LATENCY: 403.2 cycles
cpu0_STLB TOTAL        ACCESS:    1009205 HIT:     982516 MISS:      26689
cpu0_STLB LOAD         ACCESS:    1009205 HIT:     982516 MISS:      26689
cpu0_STLB RFO          ACCESS:          0 HIT:          0 MISS:          0
cpu0_STLB PREFETCH     ACCESS:          0 HIT:          0 MISS:          0
cpu0_STLB WRITE        ACCESS:          0 HIT:          0 MISS:          0
cpu0_STLB TRANSLATION  ACCESS:          0 HIT:          0 MISS:          0
cpu0_STLB PREFETCH REQUESTED:          0 ISSUED:          0 USEFUL:          0 USELESS:          0
cpu0_STLB AVERAGE MISS LATENCY: 541 cycles

DRAM Statistics

Channel 0 RQ ROW_BUFFER_HIT:      75586
  ROW_BUFFER_MISS:     372633
 AVG DBUS CONGESTED CYCLE: 3.874
WQ ROW_BUFFER_HIT: Channel 0 
  ROW_BUFFER_MISS:       6991
  FULL:      46293
