WARNING: physical memory size is smaller than virtual memory size.

*** ChampSim Multicore Out-of-Order Simulator ***
Warmup Instructions: 50000000
Simulation Instructions: 600000000
Number of CPUs: 1
Page size: 4096

CPU 0 Tage branch predictor
Off-chip DRAM Size: 4 GiB Channels: 1 Width: 64-bit Data Race: 3200 MT/s
Heartbeat CPU 0 instructions: 10000001 cycles: 2500319 heartbeat IPC: 3.999 cumulative IPC: 3.999 (Simulation time: 00 hr 04 min 32 sec)
Heartbeat CPU 0 instructions: 20000002 cycles: 5037102 heartbeat IPC: 3.942 cumulative IPC: 3.971 (Simulation time: 00 hr 09 min 14 sec)
Heartbeat CPU 0 instructions: 30000002 cycles: 7537102 heartbeat IPC: 4 cumulative IPC: 3.98 (Simulation time: 00 hr 13 min 49 sec)
Heartbeat CPU 0 instructions: 40000002 cycles: 10037102 heartbeat IPC: 4 cumulative IPC: 3.985 (Simulation time: 00 hr 18 min 02 sec)
Heartbeat CPU 0 instructions: 50000002 cycles: 12537102 heartbeat IPC: 4 cumulative IPC: 3.988 (Simulation time: 00 hr 22 min 30 sec)
Warmup finished CPU 0 instructions: 50000002 cycles: 12537103 cumulative IPC: 3.988 (Simulation time: 00 hr 22 min 30 sec)
Warmup complete CPU 0 instructions: 50000002 cycles: 12537103 cumulative IPC: 3.988 (Simulation time: 00 hr 22 min 30 sec)
Heartbeat CPU 0 instructions: 60000001 cycles: 15555553 heartbeat IPC: 3.313 cumulative IPC: 3.313 (Simulation time: 00 hr 27 min 29 sec)
Heartbeat CPU 0 instructions: 70000004 cycles: 18655592 heartbeat IPC: 3.226 cumulative IPC: 3.269 (Simulation time: 00 hr 32 min 23 sec)
Heartbeat CPU 0 instructions: 80000001 cycles: 21725135 heartbeat IPC: 3.258 cumulative IPC: 3.265 (Simulation time: 00 hr 36 min 59 sec)
Heartbeat CPU 0 instructions: 90000001 cycles: 24684657 heartbeat IPC: 3.379 cumulative IPC: 3.293 (Simulation time: 00 hr 41 min 17 sec)
Heartbeat CPU 0 instructions: 100000000 cycles: 27624102 heartbeat IPC: 3.402 cumulative IPC: 3.314 (Simulation time: 00 hr 45 min 28 sec)
Heartbeat CPU 0 instructions: 110000000 cycles: 30581078 heartbeat IPC: 3.382 cumulative IPC: 3.325 (Simulation time: 00 hr 49 min 27 sec)
Heartbeat CPU 0 instructions: 120000001 cycles: 33579357 heartbeat IPC: 3.335 cumulative IPC: 3.327 (Simulation time: 00 hr 53 min 30 sec)
Heartbeat CPU 0 instructions: 130000001 cycles: 36463118 heartbeat IPC: 3.468 cumulative IPC: 3.344 (Simulation time: 00 hr 57 min 32 sec)
Heartbeat CPU 0 instructions: 140000001 cycles: 39551537 heartbeat IPC: 3.238 cumulative IPC: 3.332 (Simulation time: 01 hr 01 min 41 sec)
Heartbeat CPU 0 instructions: 150000001 cycles: 42599901 heartbeat IPC: 3.28 cumulative IPC: 3.326 (Simulation time: 01 hr 05 min 47 sec)
Heartbeat CPU 0 instructions: 160000004 cycles: 45655437 heartbeat IPC: 3.273 cumulative IPC: 3.321 (Simulation time: 01 hr 09 min 53 sec)
Heartbeat CPU 0 instructions: 170000004 cycles: 53650003 heartbeat IPC: 1.251 cumulative IPC: 2.919 (Simulation time: 01 hr 16 min 46 sec)
Heartbeat CPU 0 instructions: 180000004 cycles: 62952567 heartbeat IPC: 1.075 cumulative IPC: 2.579 (Simulation time: 01 hr 24 min 20 sec)
Heartbeat CPU 0 instructions: 190000001 cycles: 72073392 heartbeat IPC: 1.096 cumulative IPC: 2.352 (Simulation time: 01 hr 31 min 50 sec)
Heartbeat CPU 0 instructions: 200000004 cycles: 75083725 heartbeat IPC: 3.322 cumulative IPC: 2.398 (Simulation time: 01 hr 35 min 55 sec)
Heartbeat CPU 0 instructions: 210000001 cycles: 78090842 heartbeat IPC: 3.325 cumulative IPC: 2.441 (Simulation time: 01 hr 39 min 59 sec)
Heartbeat CPU 0 instructions: 220000000 cycles: 81006096 heartbeat IPC: 3.43 cumulative IPC: 2.483 (Simulation time: 01 hr 43 min 58 sec)
Heartbeat CPU 0 instructions: 230000002 cycles: 84115900 heartbeat IPC: 3.216 cumulative IPC: 2.515 (Simulation time: 01 hr 48 min 08 sec)
Heartbeat CPU 0 instructions: 240000003 cycles: 87205575 heartbeat IPC: 3.237 cumulative IPC: 2.545 (Simulation time: 01 hr 52 min 21 sec)
Heartbeat CPU 0 instructions: 250000000 cycles: 90289566 heartbeat IPC: 3.243 cumulative IPC: 2.572 (Simulation time: 01 hr 56 min 27 sec)
Heartbeat CPU 0 instructions: 260000002 cycles: 93307987 heartbeat IPC: 3.313 cumulative IPC: 2.6 (Simulation time: 02 hr 00 min 32 sec)
Heartbeat CPU 0 instructions: 270000002 cycles: 96255810 heartbeat IPC: 3.392 cumulative IPC: 2.628 (Simulation time: 02 hr 04 min 35 sec)
Heartbeat CPU 0 instructions: 280000002 cycles: 99183075 heartbeat IPC: 3.416 cumulative IPC: 2.654 (Simulation time: 02 hr 08 min 38 sec)
Heartbeat CPU 0 instructions: 290000002 cycles: 102182614 heartbeat IPC: 3.334 cumulative IPC: 2.677 (Simulation time: 02 hr 12 min 43 sec)
Heartbeat CPU 0 instructions: 300000003 cycles: 105140697 heartbeat IPC: 3.381 cumulative IPC: 2.7 (Simulation time: 02 hr 16 min 55 sec)
Heartbeat CPU 0 instructions: 310000001 cycles: 108251287 heartbeat IPC: 3.215 cumulative IPC: 2.716 (Simulation time: 02 hr 21 min 04 sec)
Heartbeat CPU 0 instructions: 320000003 cycles: 111314953 heartbeat IPC: 3.264 cumulative IPC: 2.733 (Simulation time: 02 hr 25 min 13 sec)
Heartbeat CPU 0 instructions: 330000003 cycles: 114376542 heartbeat IPC: 3.266 cumulative IPC: 2.749 (Simulation time: 02 hr 29 min 23 sec)
Heartbeat CPU 0 instructions: 340000000 cycles: 123064353 heartbeat IPC: 1.151 cumulative IPC: 2.624 (Simulation time: 02 hr 36 min 39 sec)
Heartbeat CPU 0 instructions: 350000000 cycles: 132799977 heartbeat IPC: 1.027 cumulative IPC: 2.495 (Simulation time: 02 hr 44 min 35 sec)
Heartbeat CPU 0 instructions: 360000004 cycles: 141703433 heartbeat IPC: 1.123 cumulative IPC: 2.4 (Simulation time: 02 hr 52 min 06 sec)
Heartbeat CPU 0 instructions: 370000000 cycles: 144698942 heartbeat IPC: 3.338 cumulative IPC: 2.421 (Simulation time: 02 hr 56 min 10 sec)
Heartbeat CPU 0 instructions: 380000003 cycles: 147663179 heartbeat IPC: 3.374 cumulative IPC: 2.442 (Simulation time: 03 hr 00 min 11 sec)
Heartbeat CPU 0 instructions: 390000002 cycles: 150669698 heartbeat IPC: 3.326 cumulative IPC: 2.461 (Simulation time: 03 hr 04 min 15 sec)
Heartbeat CPU 0 instructions: 400000004 cycles: 153588244 heartbeat IPC: 3.426 cumulative IPC: 2.481 (Simulation time: 03 hr 08 min 19 sec)
Heartbeat CPU 0 instructions: 410000002 cycles: 156576842 heartbeat IPC: 3.346 cumulative IPC: 2.499 (Simulation time: 03 hr 12 min 22 sec)
Heartbeat CPU 0 instructions: 420000003 cycles: 159845844 heartbeat IPC: 3.059 cumulative IPC: 2.512 (Simulation time: 03 hr 16 min 37 sec)
Heartbeat CPU 0 instructions: 430000001 cycles: 162894374 heartbeat IPC: 3.28 cumulative IPC: 2.527 (Simulation time: 03 hr 20 min 47 sec)
Heartbeat CPU 0 instructions: 440000004 cycles: 166081400 heartbeat IPC: 3.138 cumulative IPC: 2.54 (Simulation time: 03 hr 25 min 02 sec)
Heartbeat CPU 0 instructions: 450000002 cycles: 169047045 heartbeat IPC: 3.372 cumulative IPC: 2.556 (Simulation time: 03 hr 29 min 05 sec)
Heartbeat CPU 0 instructions: 460000000 cycles: 172020879 heartbeat IPC: 3.363 cumulative IPC: 2.571 (Simulation time: 03 hr 33 min 12 sec)
Heartbeat CPU 0 instructions: 470000001 cycles: 174908751 heartbeat IPC: 3.463 cumulative IPC: 2.587 (Simulation time: 03 hr 37 min 23 sec)
Heartbeat CPU 0 instructions: 480000003 cycles: 178037779 heartbeat IPC: 3.196 cumulative IPC: 2.598 (Simulation time: 03 hr 41 min 29 sec)
Heartbeat CPU 0 instructions: 490000004 cycles: 180893881 heartbeat IPC: 3.501 cumulative IPC: 2.613 (Simulation time: 03 hr 45 min 30 sec)
Heartbeat CPU 0 instructions: 500000004 cycles: 183904779 heartbeat IPC: 3.321 cumulative IPC: 2.626 (Simulation time: 03 hr 49 min 36 sec)
Heartbeat CPU 0 instructions: 510000003 cycles: 187040110 heartbeat IPC: 3.189 cumulative IPC: 2.636 (Simulation time: 03 hr 53 min 47 sec)
Heartbeat CPU 0 instructions: 520000001 cycles: 189973381 heartbeat IPC: 3.409 cumulative IPC: 2.649 (Simulation time: 03 hr 57 min 54 sec)
Heartbeat CPU 0 instructions: 530000001 cycles: 193031176 heartbeat IPC: 3.27 cumulative IPC: 2.659 (Simulation time: 04 hr 02 min 04 sec)
Heartbeat CPU 0 instructions: 540000000 cycles: 196024979 heartbeat IPC: 3.34 cumulative IPC: 2.67 (Simulation time: 04 hr 06 min 12 sec)
Heartbeat CPU 0 instructions: 550000001 cycles: 199038547 heartbeat IPC: 3.318 cumulative IPC: 2.681 (Simulation time: 04 hr 10 min 16 sec)
Heartbeat CPU 0 instructions: 560000000 cycles: 202254873 heartbeat IPC: 3.109 cumulative IPC: 2.688 (Simulation time: 04 hr 14 min 29 sec)
Heartbeat CPU 0 instructions: 570000004 cycles: 207783378 heartbeat IPC: 1.809 cumulative IPC: 2.663 (Simulation time: 04 hr 20 min 01 sec)
Heartbeat CPU 0 instructions: 580000003 cycles: 218002134 heartbeat IPC: 0.9786 cumulative IPC: 2.58 (Simulation time: 04 hr 28 min 00 sec)
Heartbeat CPU 0 instructions: 590000002 cycles: 229897437 heartbeat IPC: 0.8407 cumulative IPC: 2.484 (Simulation time: 04 hr 36 min 05 sec)
Heartbeat CPU 0 instructions: 600000004 cycles: 233010028 heartbeat IPC: 3.213 cumulative IPC: 2.495 (Simulation time: 04 hr 39 min 48 sec)
Heartbeat CPU 0 instructions: 610000002 cycles: 236004632 heartbeat IPC: 3.339 cumulative IPC: 2.506 (Simulation time: 04 hr 42 min 56 sec)
Heartbeat CPU 0 instructions: 620000001 cycles: 238797475 heartbeat IPC: 3.581 cumulative IPC: 2.519 (Simulation time: 04 hr 45 min 48 sec)
Heartbeat CPU 0 instructions: 630000002 cycles: 241797156 heartbeat IPC: 3.334 cumulative IPC: 2.53 (Simulation time: 04 hr 48 min 34 sec)
Heartbeat CPU 0 instructions: 640000004 cycles: 244759221 heartbeat IPC: 3.376 cumulative IPC: 2.541 (Simulation time: 04 hr 50 min 57 sec)
Heartbeat CPU 0 instructions: 650000000 cycles: 247519857 heartbeat IPC: 3.622 cumulative IPC: 2.553 (Simulation time: 04 hr 53 min 02 sec)
Simulation finished CPU 0 instructions: 600000001 cycles: 234982756 cumulative IPC: 2.553 (Simulation time: 04 hr 53 min 02 sec)
Simulation complete CPU 0 instructions: 600000001 cycles: 234982756 cumulative IPC: 2.553 (Simulation time: 04 hr 53 min 02 sec)

ChampSim completed all CPUs

=== Simulation ===
CPU 0 runs traces/400.perlbench-41B.champsimtrace.xz
Region of Interest Statistics

CPU 0 cumulative IPC: 2.553 instructions: 600000001 cycles: 234982756
CPU 0 Branch Prediction Accuracy: 99.19% MPKI: 1.684 Average ROB Occupancy at Mispredict: 102
Branch type MPKI
BRANCH_DIRECT_JUMP: 0.0123
BRANCH_INDIRECT: 0.323
BRANCH_CONDITIONAL: 1.14
BRANCH_DIRECT_CALL: 0.0043
BRANCH_INDIRECT_CALL: 0.2
BRANCH_RETURN: 0.00828

LLC TOTAL        ACCESS:     721539 HIT:     207135 MISS:     514404
LLC LOAD         ACCESS:     308501 HIT:      73786 MISS:     234715
LLC RFO          ACCESS:      25152 HIT:       8725 MISS:      16427
LLC PREFETCH     ACCESS:     308501 HIT:      72220 MISS:     236281
LLC WRITE        ACCESS:      63797 HIT:      48277 MISS:      15520
LLC TRANSLATION  ACCESS:      15588 HIT:       4127 MISS:      11461
LLC PREFETCH REQUESTED:     308501 ISSUED:     308501 USEFUL:      49719 USELESS:      44996
LLC AVERAGE MISS LATENCY: 657.7 cycles
cpu0_DTLB TOTAL        ACCESS:  129747671 HIT:  129045075 MISS:     702596
cpu0_DTLB LOAD         ACCESS:  129747671 HIT:  129045075 MISS:     702596
cpu0_DTLB RFO          ACCESS:          0 HIT:          0 MISS:          0
cpu0_DTLB PREFETCH     ACCESS:          0 HIT:          0 MISS:          0
cpu0_DTLB WRITE        ACCESS:          0 HIT:          0 MISS:          0
cpu0_DTLB TRANSLATION  ACCESS:          0 HIT:          0 MISS:          0
cpu0_DTLB PREFETCH REQUESTED:          0 ISSUED:          0 USEFUL:          0 USELESS:          0
cpu0_DTLB AVERAGE MISS LATENCY: 19.16 cycles
cpu0_ITLB TOTAL        ACCESS:    4875543 HIT:    4812883 MISS:      62660
cpu0_ITLB LOAD         ACCESS:    4875543 HIT:    4812883 MISS:      62660
cpu0_ITLB RFO          ACCESS:          0 HIT:          0 MISS:          0
cpu0_ITLB PREFETCH     ACCESS:          0 HIT:          0 MISS:          0
cpu0_ITLB WRITE        ACCESS:          0 HIT:          0 MISS:          0
cpu0_ITLB TRANSLATION  ACCESS:          0 HIT:          0 MISS:          0
cpu0_ITLB PREFETCH REQUESTED:          0 ISSUED:          0 USEFUL:          0 USELESS:          0
cpu0_ITLB AVERAGE MISS LATENCY: 7.522 cycles
cpu0_L1D TOTAL        ACCESS:  174347760 HIT:  172945164 MISS:    1402596
cpu0_L1D LOAD         ACCESS:   91327156 HIT:   90245110 MISS:    1082046
cpu0_L1D RFO          ACCESS:          0 HIT:          0 MISS:          0
cpu0_L1D PREFETCH     ACCESS:          0 HIT:          0 MISS:          0
cpu0_L1D WRITE        ACCESS:   82996137 HIT:   82698450 MISS:     297687
cpu0_L1D TRANSLATION  ACCESS:      24467 HIT:       1604 MISS:      22863
cpu0_L1D PREFETCH REQUESTED:          0 ISSUED:          0 USEFUL:          0 USELESS:          0
cpu0_L1D AVERAGE MISS LATENCY: 133.3 cycles
cpu0_L1I TOTAL        ACCESS:    5654337 HIT:    4848816 MISS:     805521
cpu0_L1I LOAD         ACCESS:    5654337 HIT:    4848816 MISS:     805521
cpu0_L1I RFO          ACCESS:          0 HIT:          0 MISS:          0
cpu0_L1I PREFETCH     ACCESS:          0 HIT:          0 MISS:          0
cpu0_L1I WRITE        ACCESS:          0 HIT:          0 MISS:          0
cpu0_L1I TRANSLATION  ACCESS:          0 HIT:          0 MISS:          0
cpu0_L1I PREFETCH REQUESTED:          0 ISSUED:          0 USEFUL:          0 USELESS:          0
cpu0_L1I AVERAGE MISS LATENCY: 15.38 cycles
cpu0_L2C TOTAL        ACCESS:    1381617 HIT:    1031482 MISS:     350135
cpu0_L2C LOAD         ACCESS:    1124042 HIT:     815541 MISS:     308501
cpu0_L2C RFO          ACCESS:      64516 HIT:      39364 MISS:      25152
cpu0_L2C PREFETCH     ACCESS:          0 HIT:          0 MISS:          0
cpu0_L2C WRITE        ACCESS:     170274 HIT:     169380 MISS:        894
cpu0_L2C TRANSLATION  ACCESS:      22785 HIT:       7197 MISS:      15588
cpu0_L2C PREFETCH REQUESTED:          0 ISSUED:          0 USEFUL:          0 USELESS:          0
cpu0_L2C AVERAGE MISS LATENCY: 576.9 cycles
cpu0_STLB TOTAL        ACCESS:     508907 HIT:     486117 MISS:      22790
cpu0_STLB LOAD         ACCESS:     508907 HIT:     486117 MISS:      22790
cpu0_STLB RFO          ACCESS:          0 HIT:          0 MISS:          0
cpu0_STLB PREFETCH     ACCESS:          0 HIT:          0 MISS:          0
cpu0_STLB WRITE        ACCESS:          0 HIT:          0 MISS:          0
cpu0_STLB TRANSLATION  ACCESS:          0 HIT:          0 MISS:          0
cpu0_STLB PREFETCH REQUESTED:          0 ISSUED:          0 USEFUL:          0 USELESS:          0
cpu0_STLB AVERAGE MISS LATENCY: 494.9 cycles

DRAM Statistics

Channel 0 RQ ROW_BUFFER_HIT:      87340
  ROW_BUFFER_MISS:     332047
 AVG DBUS CONGESTED CYCLE: 3.897
WQ ROW_BUFFER_HIT: Channel 0 
  ROW_BUFFER_MISS:       4029
  FULL:      41063
