WARNING: physical memory size is smaller than virtual memory size.

*** ChampSim Multicore Out-of-Order Simulator ***
Warmup Instructions: 50000000
Simulation Instructions: 600000000
Number of CPUs: 1
Page size: 4096

Off-chip DRAM Size: 4 GiB Channels: 1 Width: 64-bit Data Race: 3200 MT/s
Heartbeat CPU 0 instructions: 10000001 cycles: 2500318 heartbeat IPC: 3.999 cumulative IPC: 3.999 (Simulation time: 00 hr 03 min 34 sec)
Heartbeat CPU 0 instructions: 20000002 cycles: 5037108 heartbeat IPC: 3.942 cumulative IPC: 3.971 (Simulation time: 00 hr 07 min 07 sec)
Heartbeat CPU 0 instructions: 30000002 cycles: 7537108 heartbeat IPC: 4 cumulative IPC: 3.98 (Simulation time: 00 hr 10 min 24 sec)
Heartbeat CPU 0 instructions: 40000002 cycles: 10037108 heartbeat IPC: 4 cumulative IPC: 3.985 (Simulation time: 00 hr 13 min 53 sec)
Heartbeat CPU 0 instructions: 50000002 cycles: 12537108 heartbeat IPC: 4 cumulative IPC: 3.988 (Simulation time: 00 hr 17 min 09 sec)
Warmup finished CPU 0 instructions: 50000002 cycles: 12537109 cumulative IPC: 3.988 (Simulation time: 00 hr 17 min 09 sec)
Warmup complete CPU 0 instructions: 50000002 cycles: 12537109 cumulative IPC: 3.988 (Simulation time: 00 hr 17 min 09 sec)
Heartbeat CPU 0 instructions: 60000000 cycles: 17157402 heartbeat IPC: 2.164 cumulative IPC: 2.164 (Simulation time: 00 hr 22 min 14 sec)
Heartbeat CPU 0 instructions: 70000004 cycles: 21435941 heartbeat IPC: 2.337 cumulative IPC: 2.247 (Simulation time: 00 hr 26 min 57 sec)
Heartbeat CPU 0 instructions: 80000001 cycles: 26050020 heartbeat IPC: 2.167 cumulative IPC: 2.22 (Simulation time: 00 hr 31 min 58 sec)
Heartbeat CPU 0 instructions: 90000001 cycles: 30185240 heartbeat IPC: 2.418 cumulative IPC: 2.267 (Simulation time: 00 hr 36 min 40 sec)
Heartbeat CPU 0 instructions: 100000000 cycles: 34250592 heartbeat IPC: 2.46 cumulative IPC: 2.303 (Simulation time: 00 hr 41 min 17 sec)
Heartbeat CPU 0 instructions: 110000000 cycles: 38487040 heartbeat IPC: 2.36 cumulative IPC: 2.312 (Simulation time: 00 hr 45 min 54 sec)
Heartbeat CPU 0 instructions: 120000001 cycles: 42504475 heartbeat IPC: 2.489 cumulative IPC: 2.336 (Simulation time: 00 hr 50 min 13 sec)
Heartbeat CPU 0 instructions: 130000001 cycles: 46254981 heartbeat IPC: 2.666 cumulative IPC: 2.373 (Simulation time: 00 hr 54 min 10 sec)
Heartbeat CPU 0 instructions: 140000001 cycles: 50430488 heartbeat IPC: 2.395 cumulative IPC: 2.375 (Simulation time: 00 hr 57 min 58 sec)
Heartbeat CPU 0 instructions: 150000001 cycles: 54642642 heartbeat IPC: 2.374 cumulative IPC: 2.375 (Simulation time: 01 hr 01 min 49 sec)
Heartbeat CPU 0 instructions: 160000004 cycles: 59078499 heartbeat IPC: 2.254 cumulative IPC: 2.363 (Simulation time: 01 hr 05 min 29 sec)
Heartbeat CPU 0 instructions: 170000004 cycles: 67142241 heartbeat IPC: 1.24 cumulative IPC: 2.198 (Simulation time: 01 hr 10 min 43 sec)
Heartbeat CPU 0 instructions: 180000004 cycles: 75618648 heartbeat IPC: 1.18 cumulative IPC: 2.061 (Simulation time: 01 hr 16 min 01 sec)
Heartbeat CPU 0 instructions: 190000001 cycles: 86320908 heartbeat IPC: 0.9344 cumulative IPC: 1.897 (Simulation time: 01 hr 21 min 45 sec)
Heartbeat CPU 0 instructions: 200000004 cycles: 90114570 heartbeat IPC: 2.636 cumulative IPC: 1.934 (Simulation time: 01 hr 24 min 37 sec)
Heartbeat CPU 0 instructions: 210000001 cycles: 94043312 heartbeat IPC: 2.545 cumulative IPC: 1.963 (Simulation time: 01 hr 27 min 36 sec)
Heartbeat CPU 0 instructions: 220000000 cycles: 98010780 heartbeat IPC: 2.52 cumulative IPC: 1.989 (Simulation time: 01 hr 30 min 41 sec)
Heartbeat CPU 0 instructions: 230000002 cycles: 102700652 heartbeat IPC: 2.132 cumulative IPC: 1.996 (Simulation time: 01 hr 33 min 58 sec)
Heartbeat CPU 0 instructions: 240000000 cycles: 106907531 heartbeat IPC: 2.377 cumulative IPC: 2.013 (Simulation time: 01 hr 37 min 09 sec)
Heartbeat CPU 0 instructions: 250000000 cycles: 111247310 heartbeat IPC: 2.304 cumulative IPC: 2.026 (Simulation time: 01 hr 40 min 13 sec)
Heartbeat CPU 0 instructions: 260000000 cycles: 115444039 heartbeat IPC: 2.383 cumulative IPC: 2.041 (Simulation time: 01 hr 43 min 17 sec)
Heartbeat CPU 0 instructions: 270000002 cycles: 119305051 heartbeat IPC: 2.59 cumulative IPC: 2.061 (Simulation time: 01 hr 46 min 19 sec)
Heartbeat CPU 0 instructions: 280000002 cycles: 123481440 heartbeat IPC: 2.394 cumulative IPC: 2.073 (Simulation time: 01 hr 49 min 23 sec)
Heartbeat CPU 0 instructions: 290000001 cycles: 127394908 heartbeat IPC: 2.555 cumulative IPC: 2.09 (Simulation time: 01 hr 52 min 28 sec)
Heartbeat CPU 0 instructions: 300000003 cycles: 131249311 heartbeat IPC: 2.594 cumulative IPC: 2.106 (Simulation time: 01 hr 55 min 26 sec)
Heartbeat CPU 0 instructions: 310000001 cycles: 135397772 heartbeat IPC: 2.411 cumulative IPC: 2.116 (Simulation time: 01 hr 58 min 26 sec)
Heartbeat CPU 0 instructions: 320000003 cycles: 139496367 heartbeat IPC: 2.44 cumulative IPC: 2.127 (Simulation time: 02 hr 01 min 35 sec)
Heartbeat CPU 0 instructions: 330000003 cycles: 143934512 heartbeat IPC: 2.253 cumulative IPC: 2.131 (Simulation time: 02 hr 04 min 40 sec)
Heartbeat CPU 0 instructions: 340000000 cycles: 152182863 heartbeat IPC: 1.212 cumulative IPC: 2.077 (Simulation time: 02 hr 09 min 37 sec)
Heartbeat CPU 0 instructions: 350000000 cycles: 161325322 heartbeat IPC: 1.094 cumulative IPC: 2.016 (Simulation time: 02 hr 14 min 56 sec)
Heartbeat CPU 0 instructions: 360000004 cycles: 172030050 heartbeat IPC: 0.9342 cumulative IPC: 1.944 (Simulation time: 02 hr 20 min 55 sec)
Heartbeat CPU 0 instructions: 370000000 cycles: 175487086 heartbeat IPC: 2.893 cumulative IPC: 1.964 (Simulation time: 02 hr 23 min 45 sec)
Heartbeat CPU 0 instructions: 380000001 cycles: 178912919 heartbeat IPC: 2.919 cumulative IPC: 1.983 (Simulation time: 02 hr 26 min 42 sec)
Heartbeat CPU 0 instructions: 390000004 cycles: 182668796 heartbeat IPC: 2.662 cumulative IPC: 1.998 (Simulation time: 02 hr 29 min 39 sec)
Heartbeat CPU 0 instructions: 400000004 cycles: 186484970 heartbeat IPC: 2.62 cumulative IPC: 2.012 (Simulation time: 02 hr 32 min 31 sec)
Heartbeat CPU 0 instructions: 410000001 cycles: 190152111 heartbeat IPC: 2.727 cumulative IPC: 2.027 (Simulation time: 02 hr 35 min 23 sec)
Heartbeat CPU 0 instructions: 420000003 cycles: 194223769 heartbeat IPC: 2.456 cumulative IPC: 2.036 (Simulation time: 02 hr 38 min 24 sec)
Heartbeat CPU 0 instructions: 430000001 cycles: 197907155 heartbeat IPC: 2.715 cumulative IPC: 2.05 (Simulation time: 02 hr 41 min 22 sec)
Heartbeat CPU 0 instructions: 440000004 cycles: 202011367 heartbeat IPC: 2.437 cumulative IPC: 2.058 (Simulation time: 02 hr 44 min 28 sec)
Heartbeat CPU 0 instructions: 450000002 cycles: 205763061 heartbeat IPC: 2.665 cumulative IPC: 2.07 (Simulation time: 02 hr 47 min 25 sec)
Heartbeat CPU 0 instructions: 460000000 cycles: 209446321 heartbeat IPC: 2.715 cumulative IPC: 2.082 (Simulation time: 02 hr 50 min 15 sec)
Heartbeat CPU 0 instructions: 470000000 cycles: 212923565 heartbeat IPC: 2.876 cumulative IPC: 2.096 (Simulation time: 02 hr 53 min 16 sec)
Heartbeat CPU 0 instructions: 480000003 cycles: 216784470 heartbeat IPC: 2.59 cumulative IPC: 2.105 (Simulation time: 02 hr 56 min 07 sec)
Heartbeat CPU 0 instructions: 490000000 cycles: 220423105 heartbeat IPC: 2.748 cumulative IPC: 2.117 (Simulation time: 02 hr 59 min 04 sec)
Heartbeat CPU 0 instructions: 500000000 cycles: 224131684 heartbeat IPC: 2.696 cumulative IPC: 2.127 (Simulation time: 03 hr 02 min 03 sec)
Heartbeat CPU 0 instructions: 510000003 cycles: 227856627 heartbeat IPC: 2.685 cumulative IPC: 2.136 (Simulation time: 03 hr 04 min 57 sec)
Heartbeat CPU 0 instructions: 520000001 cycles: 231287657 heartbeat IPC: 2.915 cumulative IPC: 2.149 (Simulation time: 03 hr 07 min 49 sec)
Heartbeat CPU 0 instructions: 530000002 cycles: 234983872 heartbeat IPC: 2.705 cumulative IPC: 2.158 (Simulation time: 03 hr 10 min 41 sec)
Heartbeat CPU 0 instructions: 540000000 cycles: 238524129 heartbeat IPC: 2.825 cumulative IPC: 2.168 (Simulation time: 03 hr 13 min 38 sec)
Heartbeat CPU 0 instructions: 550000001 cycles: 242236947 heartbeat IPC: 2.693 cumulative IPC: 2.177 (Simulation time: 03 hr 16 min 32 sec)
Heartbeat CPU 0 instructions: 560000000 cycles: 246279976 heartbeat IPC: 2.473 cumulative IPC: 2.182 (Simulation time: 03 hr 19 min 34 sec)
Heartbeat CPU 0 instructions: 570000004 cycles: 252710812 heartbeat IPC: 1.555 cumulative IPC: 2.165 (Simulation time: 03 hr 23 min 32 sec)
Heartbeat CPU 0 instructions: 580000003 cycles: 260297404 heartbeat IPC: 1.318 cumulative IPC: 2.139 (Simulation time: 03 hr 28 min 16 sec)
Heartbeat CPU 0 instructions: 590000002 cycles: 273749632 heartbeat IPC: 0.7434 cumulative IPC: 2.067 (Simulation time: 03 hr 35 min 15 sec)
Heartbeat CPU 0 instructions: 600000000 cycles: 277575286 heartbeat IPC: 2.614 cumulative IPC: 2.075 (Simulation time: 03 hr 38 min 11 sec)
Heartbeat CPU 0 instructions: 610000000 cycles: 281447042 heartbeat IPC: 2.583 cumulative IPC: 2.082 (Simulation time: 03 hr 41 min 02 sec)
Heartbeat CPU 0 instructions: 620000001 cycles: 284884375 heartbeat IPC: 2.909 cumulative IPC: 2.093 (Simulation time: 03 hr 43 min 54 sec)
Heartbeat CPU 0 instructions: 630000002 cycles: 289172822 heartbeat IPC: 2.332 cumulative IPC: 2.097 (Simulation time: 03 hr 46 min 51 sec)
Heartbeat CPU 0 instructions: 640000001 cycles: 293073291 heartbeat IPC: 2.564 cumulative IPC: 2.103 (Simulation time: 03 hr 49 min 56 sec)
Heartbeat CPU 0 instructions: 650000000 cycles: 296831508 heartbeat IPC: 2.661 cumulative IPC: 2.11 (Simulation time: 03 hr 52 min 43 sec)
Simulation finished CPU 0 instructions: 600000001 cycles: 284294401 cumulative IPC: 2.11 (Simulation time: 03 hr 52 min 43 sec)
Simulation complete CPU 0 instructions: 600000001 cycles: 284294401 cumulative IPC: 2.11 (Simulation time: 03 hr 52 min 43 sec)

ChampSim completed all CPUs

=== Simulation ===
CPU 0 runs traces/400.perlbench-41B.champsimtrace.xz
Region of Interest Statistics

CPU 0 cumulative IPC: 2.11 instructions: 600000001 cycles: 284294401
CPU 0 Branch Prediction Accuracy: 96.56% MPKI: 7.112 Average ROB Occupancy at Mispredict: 47.17
Branch type MPKI
BRANCH_DIRECT_JUMP: 0.0123
BRANCH_INDIRECT: 0.323
BRANCH_CONDITIONAL: 6.56
BRANCH_DIRECT_CALL: 0.0043
BRANCH_INDIRECT_CALL: 0.2
BRANCH_RETURN: 0.00828

LLC TOTAL        ACCESS:     414556 HIT:     169683 MISS:     244873
LLC LOAD         ACCESS:     309529 HIT:     124677 MISS:     184852
LLC RFO          ACCESS:      25154 HIT:      10127 MISS:      15027
LLC PREFETCH     ACCESS:          0 HIT:          0 MISS:          0
LLC WRITE        ACCESS:      64147 HIT:      32230 MISS:      31917
LLC TRANSLATION  ACCESS:      15726 HIT:       2649 MISS:      13077
LLC PREFETCH REQUESTED:          0 ISSUED:          0 USEFUL:          0 USELESS:          0
LLC AVERAGE MISS LATENCY: 495.2 cycles
cpu0_DTLB TOTAL        ACCESS:  141882196 HIT:  141196654 MISS:     685542
cpu0_DTLB LOAD         ACCESS:  141882196 HIT:  141196654 MISS:     685542
cpu0_DTLB RFO          ACCESS:          0 HIT:          0 MISS:          0
cpu0_DTLB PREFETCH     ACCESS:          0 HIT:          0 MISS:          0
cpu0_DTLB WRITE        ACCESS:          0 HIT:          0 MISS:          0
cpu0_DTLB TRANSLATION  ACCESS:          0 HIT:          0 MISS:          0
cpu0_DTLB PREFETCH REQUESTED:          0 ISSUED:          0 USEFUL:          0 USELESS:          0
cpu0_DTLB AVERAGE MISS LATENCY: 17.06 cycles
cpu0_ITLB TOTAL        ACCESS:    4858148 HIT:    4804847 MISS:      53301
cpu0_ITLB LOAD         ACCESS:    4858148 HIT:    4804847 MISS:      53301
cpu0_ITLB RFO          ACCESS:          0 HIT:          0 MISS:          0
cpu0_ITLB PREFETCH     ACCESS:          0 HIT:          0 MISS:          0
cpu0_ITLB WRITE        ACCESS:          0 HIT:          0 MISS:          0
cpu0_ITLB TRANSLATION  ACCESS:          0 HIT:          0 MISS:          0
cpu0_ITLB PREFETCH REQUESTED:          0 ISSUED:          0 USEFUL:          0 USELESS:          0
cpu0_ITLB AVERAGE MISS LATENCY: 7.198 cycles
cpu0_L1D TOTAL        ACCESS:  188560656 HIT:  187230021 MISS:    1330635
cpu0_L1D LOAD         ACCESS:  105192734 HIT:  104163176 MISS:    1029558
cpu0_L1D RFO          ACCESS:          0 HIT:          0 MISS:          0
cpu0_L1D PREFETCH     ACCESS:          0 HIT:          0 MISS:          0
cpu0_L1D WRITE        ACCESS:   83343454 HIT:   83065237 MISS:     278217
cpu0_L1D TRANSLATION  ACCESS:      24468 HIT:       1608 MISS:      22860
cpu0_L1D PREFETCH REQUESTED:          0 ISSUED:          0 USEFUL:          0 USELESS:          0
cpu0_L1D AVERAGE MISS LATENCY: 95.14 cycles
cpu0_L1I TOTAL        ACCESS:    5595860 HIT:    4851729 MISS:     744131
cpu0_L1I LOAD         ACCESS:    5595860 HIT:    4851729 MISS:     744131
cpu0_L1I RFO          ACCESS:          0 HIT:          0 MISS:          0
cpu0_L1I PREFETCH     ACCESS:          0 HIT:          0 MISS:          0
cpu0_L1I WRITE        ACCESS:          0 HIT:          0 MISS:          0
cpu0_L1I TRANSLATION  ACCESS:          0 HIT:          0 MISS:          0
cpu0_L1I PREFETCH REQUESTED:          0 ISSUED:          0 USEFUL:          0 USELESS:          0
cpu0_L1I AVERAGE MISS LATENCY: 12.39 cycles
cpu0_L2C TOTAL        ACCESS:    1380819 HIT:    1029534 MISS:     351285
cpu0_L2C LOAD         ACCESS:    1124785 HIT:     815256 MISS:     309529
cpu0_L2C RFO          ACCESS:      63774 HIT:      38620 MISS:      25154
cpu0_L2C PREFETCH     ACCESS:          0 HIT:          0 MISS:          0
cpu0_L2C WRITE        ACCESS:     169471 HIT:     168595 MISS:        876
cpu0_L2C TRANSLATION  ACCESS:      22789 HIT:       7063 MISS:      15726
cpu0_L2C PREFETCH REQUESTED:          0 ISSUED:          0 USEFUL:          0 USELESS:          0
cpu0_L2C AVERAGE MISS LATENCY: 365.8 cycles
cpu0_STLB TOTAL        ACCESS:     507248 HIT:     484452 MISS:      22796
cpu0_STLB LOAD         ACCESS:     507248 HIT:     484452 MISS:      22796
cpu0_STLB RFO          ACCESS:          0 HIT:          0 MISS:          0
cpu0_STLB PREFETCH     ACCESS:          0 HIT:          0 MISS:          0
cpu0_STLB WRITE        ACCESS:          0 HIT:          0 MISS:          0
cpu0_STLB TRANSLATION  ACCESS:          0 HIT:          0 MISS:          0
cpu0_STLB PREFETCH REQUESTED:          0 ISSUED:          0 USEFUL:          0 USELESS:          0
cpu0_STLB AVERAGE MISS LATENCY: 397.2 cycles

DRAM Statistics

Channel 0 RQ ROW_BUFFER_HIT:      29965
  ROW_BUFFER_MISS:     182951
 AVG DBUS CONGESTED CYCLE: 3.807
WQ ROW_BUFFER_HIT: Channel 0 
  ROW_BUFFER_MISS:       7651
  FULL:      26902
