WARNING: physical memory size is smaller than virtual memory size.

*** ChampSim Multicore Out-of-Order Simulator ***
Warmup Instructions: 50000000
Simulation Instructions: 600000000
Number of CPUs: 1
Page size: 4096

Off-chip DRAM Size: 4 GiB Channels: 1 Width: 64-bit Data Race: 3200 MT/s
Heartbeat CPU 0 instructions: 10000001 cycles: 2500318 heartbeat IPC: 3.999 cumulative IPC: 3.999 (Simulation time: 00 hr 03 min 48 sec)
Heartbeat CPU 0 instructions: 20000002 cycles: 5037077 heartbeat IPC: 3.942 cumulative IPC: 3.971 (Simulation time: 00 hr 07 min 34 sec)
Heartbeat CPU 0 instructions: 30000002 cycles: 7537077 heartbeat IPC: 4 cumulative IPC: 3.98 (Simulation time: 00 hr 10 min 56 sec)
Heartbeat CPU 0 instructions: 40000002 cycles: 10037077 heartbeat IPC: 4 cumulative IPC: 3.985 (Simulation time: 00 hr 14 min 37 sec)
Heartbeat CPU 0 instructions: 50000002 cycles: 12537077 heartbeat IPC: 4 cumulative IPC: 3.988 (Simulation time: 00 hr 18 min 02 sec)
Warmup finished CPU 0 instructions: 50000002 cycles: 12537078 cumulative IPC: 3.988 (Simulation time: 00 hr 18 min 02 sec)
Warmup complete CPU 0 instructions: 50000002 cycles: 12537078 cumulative IPC: 3.988 (Simulation time: 00 hr 18 min 02 sec)
Heartbeat CPU 0 instructions: 60000000 cycles: 17720362 heartbeat IPC: 1.929 cumulative IPC: 1.929 (Simulation time: 00 hr 23 min 41 sec)
Heartbeat CPU 0 instructions: 70000002 cycles: 22626315 heartbeat IPC: 2.038 cumulative IPC: 1.982 (Simulation time: 00 hr 29 min 03 sec)
Heartbeat CPU 0 instructions: 80000001 cycles: 28004559 heartbeat IPC: 1.859 cumulative IPC: 1.94 (Simulation time: 00 hr 34 min 39 sec)
Heartbeat CPU 0 instructions: 90000001 cycles: 32895469 heartbeat IPC: 2.045 cumulative IPC: 1.965 (Simulation time: 00 hr 40 min 07 sec)
Heartbeat CPU 0 instructions: 100000000 cycles: 38017308 heartbeat IPC: 1.952 cumulative IPC: 1.962 (Simulation time: 00 hr 45 min 49 sec)
Heartbeat CPU 0 instructions: 110000000 cycles: 42917549 heartbeat IPC: 2.041 cumulative IPC: 1.975 (Simulation time: 00 hr 51 min 03 sec)
Heartbeat CPU 0 instructions: 120000001 cycles: 48123408 heartbeat IPC: 1.921 cumulative IPC: 1.967 (Simulation time: 00 hr 56 min 32 sec)
Heartbeat CPU 0 instructions: 130000001 cycles: 53292913 heartbeat IPC: 1.934 cumulative IPC: 1.963 (Simulation time: 01 hr 01 min 46 sec)
Heartbeat CPU 0 instructions: 140000001 cycles: 58620849 heartbeat IPC: 1.877 cumulative IPC: 1.953 (Simulation time: 01 hr 06 min 45 sec)
Heartbeat CPU 0 instructions: 150000001 cycles: 63949112 heartbeat IPC: 1.877 cumulative IPC: 1.945 (Simulation time: 01 hr 11 min 30 sec)
Heartbeat CPU 0 instructions: 160000004 cycles: 69169086 heartbeat IPC: 1.916 cumulative IPC: 1.942 (Simulation time: 01 hr 15 min 59 sec)
Heartbeat CPU 0 instructions: 170000000 cycles: 79139772 heartbeat IPC: 1.003 cumulative IPC: 1.802 (Simulation time: 01 hr 22 min 48 sec)
Heartbeat CPU 0 instructions: 180000004 cycles: 89582082 heartbeat IPC: 0.9576 cumulative IPC: 1.687 (Simulation time: 01 hr 30 min 05 sec)
Heartbeat CPU 0 instructions: 190000001 cycles: 100198049 heartbeat IPC: 0.942 cumulative IPC: 1.597 (Simulation time: 01 hr 37 min 25 sec)
Heartbeat CPU 0 instructions: 200000003 cycles: 104971382 heartbeat IPC: 2.095 cumulative IPC: 1.623 (Simulation time: 01 hr 41 min 36 sec)
Heartbeat CPU 0 instructions: 210000001 cycles: 109898036 heartbeat IPC: 2.03 cumulative IPC: 1.643 (Simulation time: 01 hr 45 min 52 sec)
Heartbeat CPU 0 instructions: 220000000 cycles: 114731154 heartbeat IPC: 2.069 cumulative IPC: 1.664 (Simulation time: 01 hr 50 min 02 sec)
Heartbeat CPU 0 instructions: 230000002 cycles: 120062458 heartbeat IPC: 1.876 cumulative IPC: 1.674 (Simulation time: 01 hr 54 min 27 sec)
Heartbeat CPU 0 instructions: 240000000 cycles: 124910825 heartbeat IPC: 2.063 cumulative IPC: 1.691 (Simulation time: 01 hr 58 min 38 sec)
Heartbeat CPU 0 instructions: 250000000 cycles: 130067614 heartbeat IPC: 1.939 cumulative IPC: 1.702 (Simulation time: 02 hr 03 min 02 sec)
Heartbeat CPU 0 instructions: 260000000 cycles: 135102751 heartbeat IPC: 1.986 cumulative IPC: 1.713 (Simulation time: 02 hr 07 min 17 sec)
Heartbeat CPU 0 instructions: 270000002 cycles: 139995266 heartbeat IPC: 2.044 cumulative IPC: 1.726 (Simulation time: 02 hr 11 min 30 sec)
Heartbeat CPU 0 instructions: 280000002 cycles: 144917275 heartbeat IPC: 2.032 cumulative IPC: 1.737 (Simulation time: 02 hr 15 min 38 sec)
Heartbeat CPU 0 instructions: 290000001 cycles: 150294990 heartbeat IPC: 1.86 cumulative IPC: 1.742 (Simulation time: 02 hr 20 min 06 sec)
Heartbeat CPU 0 instructions: 300000003 cycles: 155365340 heartbeat IPC: 1.972 cumulative IPC: 1.75 (Simulation time: 02 hr 24 min 25 sec)
Heartbeat CPU 0 instructions: 310000001 cycles: 160672002 heartbeat IPC: 1.884 cumulative IPC: 1.755 (Simulation time: 02 hr 28 min 48 sec)
Heartbeat CPU 0 instructions: 320000003 cycles: 165883344 heartbeat IPC: 1.919 cumulative IPC: 1.761 (Simulation time: 02 hr 33 min 12 sec)
Heartbeat CPU 0 instructions: 330000003 cycles: 171188156 heartbeat IPC: 1.885 cumulative IPC: 1.765 (Simulation time: 02 hr 37 min 37 sec)
Heartbeat CPU 0 instructions: 340000000 cycles: 181177512 heartbeat IPC: 1.001 cumulative IPC: 1.72 (Simulation time: 02 hr 44 min 34 sec)
Heartbeat CPU 0 instructions: 350000000 cycles: 192255275 heartbeat IPC: 0.9027 cumulative IPC: 1.669 (Simulation time: 02 hr 52 min 14 sec)
Heartbeat CPU 0 instructions: 360000004 cycles: 202905120 heartbeat IPC: 0.939 cumulative IPC: 1.628 (Simulation time: 02 hr 59 min 36 sec)
Heartbeat CPU 0 instructions: 370000000 cycles: 207324802 heartbeat IPC: 2.263 cumulative IPC: 1.643 (Simulation time: 03 hr 03 min 40 sec)
Heartbeat CPU 0 instructions: 380000001 cycles: 212252665 heartbeat IPC: 2.029 cumulative IPC: 1.652 (Simulation time: 03 hr 08 min 01 sec)
Heartbeat CPU 0 instructions: 390000002 cycles: 217078134 heartbeat IPC: 2.072 cumulative IPC: 1.662 (Simulation time: 03 hr 12 min 20 sec)
Heartbeat CPU 0 instructions: 400000004 cycles: 222011109 heartbeat IPC: 2.027 cumulative IPC: 1.671 (Simulation time: 03 hr 16 min 39 sec)
Heartbeat CPU 0 instructions: 410000000 cycles: 226735823 heartbeat IPC: 2.117 cumulative IPC: 1.681 (Simulation time: 03 hr 20 min 50 sec)
Heartbeat CPU 0 instructions: 420000000 cycles: 231859134 heartbeat IPC: 1.952 cumulative IPC: 1.687 (Simulation time: 03 hr 25 min 10 sec)
Heartbeat CPU 0 instructions: 430000001 cycles: 236326353 heartbeat IPC: 2.239 cumulative IPC: 1.698 (Simulation time: 03 hr 29 min 15 sec)
Heartbeat CPU 0 instructions: 440000000 cycles: 241681072 heartbeat IPC: 1.868 cumulative IPC: 1.702 (Simulation time: 03 hr 33 min 44 sec)
Heartbeat CPU 0 instructions: 450000002 cycles: 246357357 heartbeat IPC: 2.138 cumulative IPC: 1.711 (Simulation time: 03 hr 37 min 56 sec)
Heartbeat CPU 0 instructions: 460000000 cycles: 251154039 heartbeat IPC: 2.085 cumulative IPC: 1.718 (Simulation time: 03 hr 42 min 10 sec)
Heartbeat CPU 0 instructions: 470000000 cycles: 256138024 heartbeat IPC: 2.006 cumulative IPC: 1.724 (Simulation time: 03 hr 46 min 29 sec)
Heartbeat CPU 0 instructions: 480000003 cycles: 260922567 heartbeat IPC: 2.09 cumulative IPC: 1.731 (Simulation time: 03 hr 50 min 36 sec)
Heartbeat CPU 0 instructions: 490000000 cycles: 265537518 heartbeat IPC: 2.167 cumulative IPC: 1.739 (Simulation time: 03 hr 54 min 42 sec)
Heartbeat CPU 0 instructions: 500000000 cycles: 270568458 heartbeat IPC: 1.988 cumulative IPC: 1.744 (Simulation time: 03 hr 59 min 00 sec)
Heartbeat CPU 0 instructions: 510000003 cycles: 276193764 heartbeat IPC: 1.778 cumulative IPC: 1.745 (Simulation time: 04 hr 03 min 38 sec)
Heartbeat CPU 0 instructions: 520000001 cycles: 280890647 heartbeat IPC: 2.129 cumulative IPC: 1.751 (Simulation time: 04 hr 07 min 56 sec)
Heartbeat CPU 0 instructions: 530000002 cycles: 286029628 heartbeat IPC: 1.946 cumulative IPC: 1.755 (Simulation time: 04 hr 12 min 18 sec)
Heartbeat CPU 0 instructions: 540000000 cycles: 291148594 heartbeat IPC: 1.954 cumulative IPC: 1.759 (Simulation time: 04 hr 16 min 41 sec)
Heartbeat CPU 0 instructions: 550000001 cycles: 295960669 heartbeat IPC: 2.078 cumulative IPC: 1.764 (Simulation time: 04 hr 20 min 58 sec)
Heartbeat CPU 0 instructions: 560000000 cycles: 301180051 heartbeat IPC: 1.916 cumulative IPC: 1.767 (Simulation time: 04 hr 25 min 24 sec)
Heartbeat CPU 0 instructions: 570000004 cycles: 308244323 heartbeat IPC: 1.416 cumulative IPC: 1.758 (Simulation time: 04 hr 30 min 51 sec)
Heartbeat CPU 0 instructions: 580000003 cycles: 319758447 heartbeat IPC: 0.8685 cumulative IPC: 1.725 (Simulation time: 04 hr 38 min 46 sec)
Heartbeat CPU 0 instructions: 590000002 cycles: 332820974 heartbeat IPC: 0.7655 cumulative IPC: 1.686 (Simulation time: 04 hr 47 min 23 sec)
Heartbeat CPU 0 instructions: 600000000 cycles: 337390190 heartbeat IPC: 2.189 cumulative IPC: 1.693 (Simulation time: 04 hr 51 min 31 sec)
Heartbeat CPU 0 instructions: 610000002 cycles: 341884003 heartbeat IPC: 2.225 cumulative IPC: 1.7 (Simulation time: 04 hr 55 min 33 sec)
Heartbeat CPU 0 instructions: 620000000 cycles: 346691686 heartbeat IPC: 2.08 cumulative IPC: 1.706 (Simulation time: 04 hr 59 min 33 sec)
Heartbeat CPU 0 instructions: 630000002 cycles: 351776298 heartbeat IPC: 1.967 cumulative IPC: 1.71 (Simulation time: 05 hr 03 min 28 sec)
Heartbeat CPU 0 instructions: 640000001 cycles: 356628182 heartbeat IPC: 2.061 cumulative IPC: 1.715 (Simulation time: 05 hr 07 min 11 sec)
Heartbeat CPU 0 instructions: 650000000 cycles: 361183503 heartbeat IPC: 2.195 cumulative IPC: 1.721 (Simulation time: 05 hr 10 min 45 sec)
Simulation finished CPU 0 instructions: 600000001 cycles: 348646427 cumulative IPC: 1.721 (Simulation time: 05 hr 10 min 45 sec)
Simulation complete CPU 0 instructions: 600000001 cycles: 348646427 cumulative IPC: 1.721 (Simulation time: 05 hr 10 min 45 sec)

ChampSim completed all CPUs

=== Simulation ===
CPU 0 runs traces/400.perlbench-41B.champsimtrace.xz
Region of Interest Statistics

CPU 0 cumulative IPC: 1.721 instructions: 600000001 cycles: 348646427
CPU 0 Branch Prediction Accuracy: 93.95% MPKI: 12.5 Average ROB Occupancy at Mispredict: 29.59
Branch type MPKI
BRANCH_DIRECT_JUMP: 0.0123
BRANCH_INDIRECT: 0.323
BRANCH_CONDITIONAL: 12
BRANCH_DIRECT_CALL: 0.0043
BRANCH_INDIRECT_CALL: 0.2
BRANCH_RETURN: 0.00828

LLC TOTAL        ACCESS:     414938 HIT:     157975 MISS:     256963
LLC LOAD         ACCESS:     309549 HIT:      77767 MISS:     231782
LLC RFO          ACCESS:      25083 HIT:      10256 MISS:      14827
LLC PREFETCH     ACCESS:          0 HIT:          0 MISS:          0
LLC WRITE        ACCESS:      64545 HIT:      63992 MISS:        553
LLC TRANSLATION  ACCESS:      15761 HIT:       5960 MISS:       9801
LLC PREFETCH REQUESTED:          0 ISSUED:          0 USEFUL:          0 USELESS:          0
LLC AVERAGE MISS LATENCY: 563.6 cycles
cpu0_DTLB TOTAL        ACCESS:  153664743 HIT:  152987418 MISS:     677325
cpu0_DTLB LOAD         ACCESS:  153664743 HIT:  152987418 MISS:     677325
cpu0_DTLB RFO          ACCESS:          0 HIT:          0 MISS:          0
cpu0_DTLB PREFETCH     ACCESS:          0 HIT:          0 MISS:          0
cpu0_DTLB WRITE        ACCESS:          0 HIT:          0 MISS:          0
cpu0_DTLB TRANSLATION  ACCESS:          0 HIT:          0 MISS:          0
cpu0_DTLB PREFETCH REQUESTED:          0 ISSUED:          0 USEFUL:          0 USELESS:          0
cpu0_DTLB AVERAGE MISS LATENCY: 15.26 cycles
cpu0_ITLB TOTAL        ACCESS:    4835127 HIT:    4777075 MISS:      58052
cpu0_ITLB LOAD         ACCESS:    4835127 HIT:    4777075 MISS:      58052
cpu0_ITLB RFO          ACCESS:          0 HIT:          0 MISS:          0
cpu0_ITLB PREFETCH     ACCESS:          0 HIT:          0 MISS:          0
cpu0_ITLB WRITE        ACCESS:          0 HIT:          0 MISS:          0
cpu0_ITLB TRANSLATION  ACCESS:          0 HIT:          0 MISS:          0
cpu0_ITLB PREFETCH REQUESTED:          0 ISSUED:          0 USEFUL:          0 USELESS:          0
cpu0_ITLB AVERAGE MISS LATENCY: 7.391 cycles
cpu0_L1D TOTAL        ACCESS:  200284911 HIT:  198939348 MISS:    1345563
cpu0_L1D LOAD         ACCESS:  117041369 HIT:  116007265 MISS:    1034104
cpu0_L1D RFO          ACCESS:          0 HIT:          0 MISS:          0
cpu0_L1D PREFETCH     ACCESS:          0 HIT:          0 MISS:          0
cpu0_L1D WRITE        ACCESS:   83219079 HIT:   82930513 MISS:     288566
cpu0_L1D TRANSLATION  ACCESS:      24463 HIT:       1570 MISS:      22893
cpu0_L1D PREFETCH REQUESTED:          0 ISSUED:          0 USEFUL:          0 USELESS:          0
cpu0_L1D AVERAGE MISS LATENCY: 111.9 cycles
cpu0_L1I TOTAL        ACCESS:    5577654 HIT:    4815498 MISS:     762156
cpu0_L1I LOAD         ACCESS:    5577654 HIT:    4815498 MISS:     762156
cpu0_L1I RFO          ACCESS:          0 HIT:          0 MISS:          0
cpu0_L1I PREFETCH     ACCESS:          0 HIT:          0 MISS:          0
cpu0_L1I WRITE        ACCESS:          0 HIT:          0 MISS:          0
cpu0_L1I TRANSLATION  ACCESS:          0 HIT:          0 MISS:          0
cpu0_L1I PREFETCH REQUESTED:          0 ISSUED:          0 USEFUL:          0 USELESS:          0
cpu0_L1I AVERAGE MISS LATENCY: 11.5 cycles
cpu0_L2C TOTAL        ACCESS:    1382553 HIT:    1031284 MISS:     351269
cpu0_L2C LOAD         ACCESS:    1125668 HIT:     816119 MISS:     309549
cpu0_L2C RFO          ACCESS:      63913 HIT:      38830 MISS:      25083
cpu0_L2C PREFETCH     ACCESS:          0 HIT:          0 MISS:          0
cpu0_L2C WRITE        ACCESS:     170163 HIT:     169287 MISS:        876
cpu0_L2C TRANSLATION  ACCESS:      22809 HIT:       7048 MISS:      15761
cpu0_L2C PREFETCH REQUESTED:          0 ISSUED:          0 USEFUL:          0 USELESS:          0
cpu0_L2C AVERAGE MISS LATENCY: 433 cycles
cpu0_STLB TOTAL        ACCESS:     505124 HIT:     482334 MISS:      22790
cpu0_STLB LOAD         ACCESS:     505124 HIT:     482334 MISS:      22790
cpu0_STLB RFO          ACCESS:          0 HIT:          0 MISS:          0
cpu0_STLB PREFETCH     ACCESS:          0 HIT:          0 MISS:          0
cpu0_STLB WRITE        ACCESS:          0 HIT:          0 MISS:          0
cpu0_STLB TRANSLATION  ACCESS:          0 HIT:          0 MISS:          0
cpu0_STLB PREFETCH REQUESTED:          0 ISSUED:          0 USEFUL:          0 USELESS:          0
cpu0_STLB AVERAGE MISS LATENCY: 332.6 cycles

DRAM Statistics

Channel 0 RQ ROW_BUFFER_HIT:      41378
  ROW_BUFFER_MISS:     215010
 AVG DBUS CONGESTED CYCLE: 3.804
WQ ROW_BUFFER_HIT: Channel 0 
  ROW_BUFFER_MISS:       7410
  FULL:      30955
