WARNING: physical memory size is smaller than virtual memory size.

*** ChampSim Multicore Out-of-Order Simulator ***
Warmup Instructions: 50000000
Simulation Instructions: 600000000
Number of CPUs: 1
Page size: 4096

Off-chip DRAM Size: 4 GiB Channels: 1 Width: 64-bit Data Race: 3200 MT/s
Heartbeat CPU 0 instructions: 10000001 cycles: 2500318 heartbeat IPC: 3.999 cumulative IPC: 3.999 (Simulation time: 00 hr 03 min 43 sec)
Heartbeat CPU 0 instructions: 20000002 cycles: 5037103 heartbeat IPC: 3.942 cumulative IPC: 3.971 (Simulation time: 00 hr 07 min 40 sec)
Heartbeat CPU 0 instructions: 30000002 cycles: 7537103 heartbeat IPC: 4 cumulative IPC: 3.98 (Simulation time: 00 hr 11 min 03 sec)
Heartbeat CPU 0 instructions: 40000002 cycles: 10037103 heartbeat IPC: 4 cumulative IPC: 3.985 (Simulation time: 00 hr 14 min 33 sec)
Heartbeat CPU 0 instructions: 50000002 cycles: 12537103 heartbeat IPC: 4 cumulative IPC: 3.988 (Simulation time: 00 hr 18 min 01 sec)
Warmup finished CPU 0 instructions: 50000002 cycles: 12537104 cumulative IPC: 3.988 (Simulation time: 00 hr 18 min 01 sec)
Warmup complete CPU 0 instructions: 50000002 cycles: 12537104 cumulative IPC: 3.988 (Simulation time: 00 hr 18 min 01 sec)
Heartbeat CPU 0 instructions: 60000000 cycles: 17159437 heartbeat IPC: 2.163 cumulative IPC: 2.163 (Simulation time: 00 hr 23 min 05 sec)
Heartbeat CPU 0 instructions: 70000004 cycles: 21438066 heartbeat IPC: 2.337 cumulative IPC: 2.247 (Simulation time: 00 hr 28 min 01 sec)
Heartbeat CPU 0 instructions: 80000001 cycles: 26043690 heartbeat IPC: 2.171 cumulative IPC: 2.221 (Simulation time: 00 hr 33 min 04 sec)
Heartbeat CPU 0 instructions: 90000001 cycles: 30174345 heartbeat IPC: 2.421 cumulative IPC: 2.268 (Simulation time: 00 hr 37 min 52 sec)
Heartbeat CPU 0 instructions: 100000000 cycles: 34231454 heartbeat IPC: 2.465 cumulative IPC: 2.305 (Simulation time: 00 hr 42 min 39 sec)
Heartbeat CPU 0 instructions: 110000000 cycles: 38471400 heartbeat IPC: 2.359 cumulative IPC: 2.314 (Simulation time: 00 hr 47 min 30 sec)
Heartbeat CPU 0 instructions: 120000001 cycles: 42488267 heartbeat IPC: 2.49 cumulative IPC: 2.337 (Simulation time: 00 hr 52 min 13 sec)
Heartbeat CPU 0 instructions: 130000001 cycles: 46230811 heartbeat IPC: 2.672 cumulative IPC: 2.374 (Simulation time: 00 hr 56 min 54 sec)
Heartbeat CPU 0 instructions: 140000001 cycles: 50404229 heartbeat IPC: 2.396 cumulative IPC: 2.377 (Simulation time: 01 hr 01 min 49 sec)
Heartbeat CPU 0 instructions: 150000001 cycles: 54614427 heartbeat IPC: 2.375 cumulative IPC: 2.377 (Simulation time: 01 hr 06 min 42 sec)
Heartbeat CPU 0 instructions: 160000004 cycles: 59043093 heartbeat IPC: 2.258 cumulative IPC: 2.365 (Simulation time: 01 hr 11 min 39 sec)
Heartbeat CPU 0 instructions: 170000004 cycles: 67560572 heartbeat IPC: 1.174 cumulative IPC: 2.181 (Simulation time: 01 hr 19 min 21 sec)
Heartbeat CPU 0 instructions: 180000004 cycles: 76194335 heartbeat IPC: 1.158 cumulative IPC: 2.042 (Simulation time: 01 hr 27 min 17 sec)
Heartbeat CPU 0 instructions: 190000001 cycles: 86784558 heartbeat IPC: 0.9443 cumulative IPC: 1.886 (Simulation time: 01 hr 36 min 23 sec)
Heartbeat CPU 0 instructions: 200000004 cycles: 90572173 heartbeat IPC: 2.64 cumulative IPC: 1.922 (Simulation time: 01 hr 41 min 02 sec)
Heartbeat CPU 0 instructions: 210000001 cycles: 94494238 heartbeat IPC: 2.55 cumulative IPC: 1.952 (Simulation time: 01 hr 45 min 47 sec)
Heartbeat CPU 0 instructions: 220000000 cycles: 98458253 heartbeat IPC: 2.523 cumulative IPC: 1.979 (Simulation time: 01 hr 50 min 29 sec)
Heartbeat CPU 0 instructions: 230000002 cycles: 103141936 heartbeat IPC: 2.135 cumulative IPC: 1.987 (Simulation time: 01 hr 55 min 34 sec)
Heartbeat CPU 0 instructions: 240000000 cycles: 107341757 heartbeat IPC: 2.381 cumulative IPC: 2.004 (Simulation time: 02 hr 00 min 29 sec)
Heartbeat CPU 0 instructions: 250000000 cycles: 111667288 heartbeat IPC: 2.312 cumulative IPC: 2.018 (Simulation time: 02 hr 05 min 24 sec)
Heartbeat CPU 0 instructions: 260000000 cycles: 115859995 heartbeat IPC: 2.385 cumulative IPC: 2.032 (Simulation time: 02 hr 10 min 19 sec)
Heartbeat CPU 0 instructions: 270000002 cycles: 119714705 heartbeat IPC: 2.594 cumulative IPC: 2.053 (Simulation time: 02 hr 15 min 00 sec)
Heartbeat CPU 0 instructions: 280000002 cycles: 123888338 heartbeat IPC: 2.396 cumulative IPC: 2.066 (Simulation time: 02 hr 19 min 53 sec)
Heartbeat CPU 0 instructions: 290000001 cycles: 127792143 heartbeat IPC: 2.562 cumulative IPC: 2.082 (Simulation time: 02 hr 24 min 37 sec)
Heartbeat CPU 0 instructions: 300000003 cycles: 131637809 heartbeat IPC: 2.6 cumulative IPC: 2.099 (Simulation time: 02 hr 29 min 22 sec)
Heartbeat CPU 0 instructions: 310000001 cycles: 135778508 heartbeat IPC: 2.415 cumulative IPC: 2.11 (Simulation time: 02 hr 34 min 20 sec)
Heartbeat CPU 0 instructions: 320000003 cycles: 139869590 heartbeat IPC: 2.444 cumulative IPC: 2.12 (Simulation time: 02 hr 39 min 08 sec)
Heartbeat CPU 0 instructions: 330000003 cycles: 144296412 heartbeat IPC: 2.259 cumulative IPC: 2.125 (Simulation time: 02 hr 44 min 04 sec)
Heartbeat CPU 0 instructions: 340000000 cycles: 153081450 heartbeat IPC: 1.138 cumulative IPC: 2.063 (Simulation time: 02 hr 52 min 03 sec)
Heartbeat CPU 0 instructions: 350000000 cycles: 162384932 heartbeat IPC: 1.075 cumulative IPC: 2.002 (Simulation time: 03 hr 00 min 23 sec)
Heartbeat CPU 0 instructions: 360000004 cycles: 172999061 heartbeat IPC: 0.9421 cumulative IPC: 1.932 (Simulation time: 03 hr 09 min 36 sec)
Heartbeat CPU 0 instructions: 370000000 cycles: 176445841 heartbeat IPC: 2.901 cumulative IPC: 1.952 (Simulation time: 03 hr 14 min 02 sec)
Heartbeat CPU 0 instructions: 380000001 cycles: 179870568 heartbeat IPC: 2.92 cumulative IPC: 1.972 (Simulation time: 03 hr 18 min 31 sec)
Heartbeat CPU 0 instructions: 390000004 cycles: 183619276 heartbeat IPC: 2.668 cumulative IPC: 1.987 (Simulation time: 03 hr 23 min 07 sec)
Heartbeat CPU 0 instructions: 400000004 cycles: 187433779 heartbeat IPC: 2.622 cumulative IPC: 2.001 (Simulation time: 03 hr 27 min 46 sec)
Heartbeat CPU 0 instructions: 410000001 cycles: 191087263 heartbeat IPC: 2.737 cumulative IPC: 2.016 (Simulation time: 03 hr 32 min 22 sec)
Heartbeat CPU 0 instructions: 420000003 cycles: 195162649 heartbeat IPC: 2.454 cumulative IPC: 2.026 (Simulation time: 03 hr 37 min 08 sec)
Heartbeat CPU 0 instructions: 430000001 cycles: 198839769 heartbeat IPC: 2.72 cumulative IPC: 2.04 (Simulation time: 03 hr 41 min 49 sec)
Heartbeat CPU 0 instructions: 440000004 cycles: 202932554 heartbeat IPC: 2.443 cumulative IPC: 2.048 (Simulation time: 03 hr 46 min 39 sec)
Heartbeat CPU 0 instructions: 450000002 cycles: 206678716 heartbeat IPC: 2.669 cumulative IPC: 2.06 (Simulation time: 03 hr 51 min 19 sec)
Heartbeat CPU 0 instructions: 460000000 cycles: 210356925 heartbeat IPC: 2.719 cumulative IPC: 2.073 (Simulation time: 03 hr 55 min 55 sec)
Heartbeat CPU 0 instructions: 470000000 cycles: 213830440 heartbeat IPC: 2.879 cumulative IPC: 2.087 (Simulation time: 04 hr 00 min 24 sec)
Heartbeat CPU 0 instructions: 480000003 cycles: 217688219 heartbeat IPC: 2.592 cumulative IPC: 2.096 (Simulation time: 04 hr 05 min 04 sec)
Heartbeat CPU 0 instructions: 490000000 cycles: 221321749 heartbeat IPC: 2.752 cumulative IPC: 2.107 (Simulation time: 04 hr 09 min 38 sec)
Heartbeat CPU 0 instructions: 500000000 cycles: 225022456 heartbeat IPC: 2.702 cumulative IPC: 2.118 (Simulation time: 04 hr 14 min 15 sec)
Heartbeat CPU 0 instructions: 510000003 cycles: 228733695 heartbeat IPC: 2.695 cumulative IPC: 2.128 (Simulation time: 04 hr 18 min 54 sec)
Heartbeat CPU 0 instructions: 520000001 cycles: 232156007 heartbeat IPC: 2.922 cumulative IPC: 2.14 (Simulation time: 04 hr 23 min 23 sec)
Heartbeat CPU 0 instructions: 530000002 cycles: 235845610 heartbeat IPC: 2.71 cumulative IPC: 2.149 (Simulation time: 04 hr 27 min 57 sec)
Heartbeat CPU 0 instructions: 540000000 cycles: 239383644 heartbeat IPC: 2.826 cumulative IPC: 2.16 (Simulation time: 04 hr 32 min 29 sec)
Heartbeat CPU 0 instructions: 550000001 cycles: 243088837 heartbeat IPC: 2.699 cumulative IPC: 2.169 (Simulation time: 04 hr 37 min 04 sec)
Heartbeat CPU 0 instructions: 560000000 cycles: 247115418 heartbeat IPC: 2.483 cumulative IPC: 2.174 (Simulation time: 04 hr 41 min 50 sec)
Heartbeat CPU 0 instructions: 570000004 cycles: 253551140 heartbeat IPC: 1.554 cumulative IPC: 2.158 (Simulation time: 04 hr 48 min 12 sec)
Heartbeat CPU 0 instructions: 580000003 cycles: 261881689 heartbeat IPC: 1.2 cumulative IPC: 2.126 (Simulation time: 04 hr 55 min 53 sec)
Heartbeat CPU 0 instructions: 590000002 cycles: 275247022 heartbeat IPC: 0.7482 cumulative IPC: 2.055 (Simulation time: 05 hr 06 min 52 sec)
Heartbeat CPU 0 instructions: 600000000 cycles: 279057906 heartbeat IPC: 2.624 cumulative IPC: 2.064 (Simulation time: 05 hr 11 min 33 sec)
Heartbeat CPU 0 instructions: 610000000 cycles: 282918317 heartbeat IPC: 2.59 cumulative IPC: 2.071 (Simulation time: 05 hr 16 min 11 sec)
Heartbeat CPU 0 instructions: 620000001 cycles: 286354301 heartbeat IPC: 2.91 cumulative IPC: 2.082 (Simulation time: 05 hr 20 min 40 sec)
Heartbeat CPU 0 instructions: 630000002 cycles: 290635830 heartbeat IPC: 2.336 cumulative IPC: 2.086 (Simulation time: 05 hr 25 min 37 sec)
Heartbeat CPU 0 instructions: 640000001 cycles: 294536576 heartbeat IPC: 2.564 cumulative IPC: 2.092 (Simulation time: 05 hr 30 min 39 sec)
Heartbeat CPU 0 instructions: 650000000 cycles: 298290623 heartbeat IPC: 2.664 cumulative IPC: 2.1 (Simulation time: 05 hr 35 min 38 sec)
Simulation finished CPU 0 instructions: 600000001 cycles: 285753521 cumulative IPC: 2.1 (Simulation time: 05 hr 35 min 38 sec)
Simulation complete CPU 0 instructions: 600000001 cycles: 285753521 cumulative IPC: 2.1 (Simulation time: 05 hr 35 min 38 sec)

ChampSim completed all CPUs

=== Simulation ===
CPU 0 runs traces/400.perlbench-41B.champsimtrace.xz
Region of Interest Statistics

CPU 0 cumulative IPC: 2.1 instructions: 600000001 cycles: 285753521
CPU 0 Branch Prediction Accuracy: 96.56% MPKI: 7.112 Average ROB Occupancy at Mispredict: 47.22
Branch type MPKI
BRANCH_DIRECT_JUMP: 0.0123
BRANCH_INDIRECT: 0.323
BRANCH_CONDITIONAL: 6.56
BRANCH_DIRECT_CALL: 0.0043
BRANCH_INDIRECT_CALL: 0.2
BRANCH_RETURN: 0.00828

LLC TOTAL        ACCESS:     463963 HIT:     200131 MISS:     263832
LLC LOAD         ACCESS:     309534 HIT:     129086 MISS:     180448
LLC RFO          ACCESS:      25160 HIT:       8883 MISS:      16277
LLC PREFETCH     ACCESS:      49424 HIT:      27341 MISS:      22083
LLC WRITE        ACCESS:      64108 HIT:      31861 MISS:      32247
LLC TRANSLATION  ACCESS:      15737 HIT:       2960 MISS:      12777
LLC PREFETCH REQUESTED:      49424 ISSUED:      49424 USEFUL:      12631 USELESS:       6719
LLC AVERAGE MISS LATENCY: 510 cycles
cpu0_DTLB TOTAL        ACCESS:  141882862 HIT:  141197727 MISS:     685135
cpu0_DTLB LOAD         ACCESS:  141882862 HIT:  141197727 MISS:     685135
cpu0_DTLB RFO          ACCESS:          0 HIT:          0 MISS:          0
cpu0_DTLB PREFETCH     ACCESS:          0 HIT:          0 MISS:          0
cpu0_DTLB WRITE        ACCESS:          0 HIT:          0 MISS:          0
cpu0_DTLB TRANSLATION  ACCESS:          0 HIT:          0 MISS:          0
cpu0_DTLB PREFETCH REQUESTED:          0 ISSUED:          0 USEFUL:          0 USELESS:          0
cpu0_DTLB AVERAGE MISS LATENCY: 17.03 cycles
cpu0_ITLB TOTAL        ACCESS:    4860171 HIT:    4806870 MISS:      53301
cpu0_ITLB LOAD         ACCESS:    4860171 HIT:    4806870 MISS:      53301
cpu0_ITLB RFO          ACCESS:          0 HIT:          0 MISS:          0
cpu0_ITLB PREFETCH     ACCESS:          0 HIT:          0 MISS:          0
cpu0_ITLB WRITE        ACCESS:          0 HIT:          0 MISS:          0
cpu0_ITLB TRANSLATION  ACCESS:          0 HIT:          0 MISS:          0
cpu0_ITLB PREFETCH REQUESTED:          0 ISSUED:          0 USEFUL:          0 USELESS:          0
cpu0_ITLB AVERAGE MISS LATENCY: 7.465 cycles
cpu0_L1D TOTAL        ACCESS:  188561712 HIT:  187234483 MISS:    1327229
cpu0_L1D LOAD         ACCESS:  105193871 HIT:  104172643 MISS:    1021228
cpu0_L1D RFO          ACCESS:          0 HIT:          0 MISS:          0
cpu0_L1D PREFETCH     ACCESS:          0 HIT:          0 MISS:          0
cpu0_L1D WRITE        ACCESS:   83343372 HIT:   83060233 MISS:     283139
cpu0_L1D TRANSLATION  ACCESS:      24469 HIT:       1607 MISS:      22862
cpu0_L1D PREFETCH REQUESTED:          0 ISSUED:          0 USEFUL:          0 USELESS:          0
cpu0_L1D AVERAGE MISS LATENCY: 94.23 cycles
cpu0_L1I TOTAL        ACCESS:    5597589 HIT:    4853458 MISS:     744131
cpu0_L1I LOAD         ACCESS:    5597589 HIT:    4853458 MISS:     744131
cpu0_L1I RFO          ACCESS:          0 HIT:          0 MISS:          0
cpu0_L1I PREFETCH     ACCESS:          0 HIT:          0 MISS:          0
cpu0_L1I WRITE        ACCESS:          0 HIT:          0 MISS:          0
cpu0_L1I TRANSLATION  ACCESS:          0 HIT:          0 MISS:          0
cpu0_L1I PREFETCH REQUESTED:          0 ISSUED:          0 USEFUL:          0 USELESS:          0
cpu0_L1I AVERAGE MISS LATENCY: 13.39 cycles
cpu0_L2C TOTAL        ACCESS:    1380769 HIT:    1029464 MISS:     351305
cpu0_L2C LOAD         ACCESS:    1124787 HIT:     815253 MISS:     309534
cpu0_L2C RFO          ACCESS:      63774 HIT:      38614 MISS:      25160
cpu0_L2C PREFETCH     ACCESS:          0 HIT:          0 MISS:          0
cpu0_L2C WRITE        ACCESS:     169420 HIT:     168546 MISS:        874
cpu0_L2C TRANSLATION  ACCESS:      22788 HIT:       7051 MISS:      15737
cpu0_L2C PREFETCH REQUESTED:          0 ISSUED:          0 USEFUL:          0 USELESS:          0
cpu0_L2C AVERAGE MISS LATENCY: 362.9 cycles
cpu0_STLB TOTAL        ACCESS:     507221 HIT:     484426 MISS:      22795
cpu0_STLB LOAD         ACCESS:     507221 HIT:     484426 MISS:      22795
cpu0_STLB RFO          ACCESS:          0 HIT:          0 MISS:          0
cpu0_STLB PREFETCH     ACCESS:          0 HIT:          0 MISS:          0
cpu0_STLB WRITE        ACCESS:          0 HIT:          0 MISS:          0
cpu0_STLB TRANSLATION  ACCESS:          0 HIT:          0 MISS:          0
cpu0_STLB PREFETCH REQUESTED:          0 ISSUED:          0 USEFUL:          0 USELESS:          0
cpu0_STLB AVERAGE MISS LATENCY: 395.3 cycles

DRAM Statistics

Channel 0 RQ ROW_BUFFER_HIT:      34767
  ROW_BUFFER_MISS:     193202
 AVG DBUS CONGESTED CYCLE: 3.822
WQ ROW_BUFFER_HIT: Channel 0 
  ROW_BUFFER_MISS:       7768
  FULL:      30501
