WARNING: physical memory size is smaller than virtual memory size.

*** ChampSim Multicore Out-of-Order Simulator ***
Warmup Instructions: 50000000
Simulation Instructions: 600000000
Number of CPUs: 1
Page size: 4096

CPU 0 Tage branch predictor
Off-chip DRAM Size: 4 GiB Channels: 1 Width: 64-bit Data Race: 3200 MT/s
Heartbeat CPU 0 instructions: 10000001 cycles: 2500318 heartbeat IPC: 3.999 cumulative IPC: 3.999 (Simulation time: 00 hr 04 min 24 sec)
Heartbeat CPU 0 instructions: 20000002 cycles: 5037105 heartbeat IPC: 3.942 cumulative IPC: 3.971 (Simulation time: 00 hr 09 min 07 sec)
Heartbeat CPU 0 instructions: 30000002 cycles: 7537105 heartbeat IPC: 4 cumulative IPC: 3.98 (Simulation time: 00 hr 13 min 18 sec)
Heartbeat CPU 0 instructions: 40000002 cycles: 10037105 heartbeat IPC: 4 cumulative IPC: 3.985 (Simulation time: 00 hr 17 min 34 sec)
Heartbeat CPU 0 instructions: 50000002 cycles: 12537105 heartbeat IPC: 4 cumulative IPC: 3.988 (Simulation time: 00 hr 21 min 47 sec)
Warmup finished CPU 0 instructions: 50000002 cycles: 12537106 cumulative IPC: 3.988 (Simulation time: 00 hr 21 min 47 sec)
Warmup complete CPU 0 instructions: 50000002 cycles: 12537106 cumulative IPC: 3.988 (Simulation time: 00 hr 21 min 47 sec)
Heartbeat CPU 0 instructions: 60000001 cycles: 15515924 heartbeat IPC: 3.357 cumulative IPC: 3.357 (Simulation time: 00 hr 26 min 51 sec)
Heartbeat CPU 0 instructions: 70000004 cycles: 18588291 heartbeat IPC: 3.255 cumulative IPC: 3.305 (Simulation time: 00 hr 32 min 10 sec)
Heartbeat CPU 0 instructions: 80000001 cycles: 21639117 heartbeat IPC: 3.278 cumulative IPC: 3.296 (Simulation time: 00 hr 37 min 21 sec)
Heartbeat CPU 0 instructions: 90000001 cycles: 24585362 heartbeat IPC: 3.394 cumulative IPC: 3.32 (Simulation time: 00 hr 42 min 20 sec)
Heartbeat CPU 0 instructions: 100000000 cycles: 27503455 heartbeat IPC: 3.427 cumulative IPC: 3.341 (Simulation time: 00 hr 47 min 18 sec)
Heartbeat CPU 0 instructions: 110000000 cycles: 30450859 heartbeat IPC: 3.393 cumulative IPC: 3.349 (Simulation time: 00 hr 52 min 15 sec)
Heartbeat CPU 0 instructions: 120000001 cycles: 33433284 heartbeat IPC: 3.353 cumulative IPC: 3.35 (Simulation time: 00 hr 57 min 20 sec)
Heartbeat CPU 0 instructions: 130000001 cycles: 36292400 heartbeat IPC: 3.498 cumulative IPC: 3.368 (Simulation time: 01 hr 02 min 22 sec)
Heartbeat CPU 0 instructions: 140000001 cycles: 39342869 heartbeat IPC: 3.278 cumulative IPC: 3.357 (Simulation time: 01 hr 07 min 25 sec)
Heartbeat CPU 0 instructions: 150000001 cycles: 42362212 heartbeat IPC: 3.312 cumulative IPC: 3.353 (Simulation time: 01 hr 12 min 29 sec)
Heartbeat CPU 0 instructions: 160000004 cycles: 45388038 heartbeat IPC: 3.305 cumulative IPC: 3.348 (Simulation time: 01 hr 17 min 32 sec)
Heartbeat CPU 0 instructions: 170000004 cycles: 51531792 heartbeat IPC: 1.628 cumulative IPC: 3.077 (Simulation time: 01 hr 24 min 54 sec)
Heartbeat CPU 0 instructions: 180000004 cycles: 57752314 heartbeat IPC: 1.608 cumulative IPC: 2.875 (Simulation time: 01 hr 32 min 22 sec)
Heartbeat CPU 0 instructions: 190000001 cycles: 66047968 heartbeat IPC: 1.205 cumulative IPC: 2.616 (Simulation time: 01 hr 41 min 15 sec)
Heartbeat CPU 0 instructions: 200000004 cycles: 69022971 heartbeat IPC: 3.361 cumulative IPC: 2.656 (Simulation time: 01 hr 46 min 26 sec)
Heartbeat CPU 0 instructions: 210000001 cycles: 71985913 heartbeat IPC: 3.375 cumulative IPC: 2.691 (Simulation time: 01 hr 51 min 30 sec)
Heartbeat CPU 0 instructions: 220000000 cycles: 74883908 heartbeat IPC: 3.451 cumulative IPC: 2.727 (Simulation time: 01 hr 56 min 24 sec)
Heartbeat CPU 0 instructions: 230000002 cycles: 77909648 heartbeat IPC: 3.305 cumulative IPC: 2.753 (Simulation time: 02 hr 01 min 27 sec)
Heartbeat CPU 0 instructions: 240000003 cycles: 80944319 heartbeat IPC: 3.295 cumulative IPC: 2.777 (Simulation time: 02 hr 06 min 31 sec)
Heartbeat CPU 0 instructions: 250000000 cycles: 83976245 heartbeat IPC: 3.298 cumulative IPC: 2.8 (Simulation time: 02 hr 11 min 34 sec)
Heartbeat CPU 0 instructions: 260000002 cycles: 86949635 heartbeat IPC: 3.363 cumulative IPC: 2.822 (Simulation time: 02 hr 16 min 34 sec)
Heartbeat CPU 0 instructions: 270000002 cycles: 89865563 heartbeat IPC: 3.429 cumulative IPC: 2.845 (Simulation time: 02 hr 21 min 28 sec)
Heartbeat CPU 0 instructions: 280000002 cycles: 92755872 heartbeat IPC: 3.46 cumulative IPC: 2.867 (Simulation time: 02 hr 26 min 27 sec)
Heartbeat CPU 0 instructions: 290000002 cycles: 95721384 heartbeat IPC: 3.372 cumulative IPC: 2.885 (Simulation time: 02 hr 31 min 25 sec)
Heartbeat CPU 0 instructions: 300000003 cycles: 98625705 heartbeat IPC: 3.443 cumulative IPC: 2.904 (Simulation time: 02 hr 36 min 28 sec)
Heartbeat CPU 0 instructions: 310000001 cycles: 101667954 heartbeat IPC: 3.287 cumulative IPC: 2.917 (Simulation time: 02 hr 41 min 32 sec)
Heartbeat CPU 0 instructions: 320000003 cycles: 104687715 heartbeat IPC: 3.312 cumulative IPC: 2.93 (Simulation time: 02 hr 46 min 34 sec)
Heartbeat CPU 0 instructions: 330000003 cycles: 107689502 heartbeat IPC: 3.331 cumulative IPC: 2.943 (Simulation time: 02 hr 51 min 38 sec)
Heartbeat CPU 0 instructions: 340000000 cycles: 113966257 heartbeat IPC: 1.593 cumulative IPC: 2.859 (Simulation time: 02 hr 59 min 01 sec)
Heartbeat CPU 0 instructions: 350000000 cycles: 120558525 heartbeat IPC: 1.517 cumulative IPC: 2.777 (Simulation time: 03 hr 06 min 43 sec)
Heartbeat CPU 0 instructions: 360000004 cycles: 128854618 heartbeat IPC: 1.205 cumulative IPC: 2.665 (Simulation time: 03 hr 15 min 29 sec)
Heartbeat CPU 0 instructions: 370000000 cycles: 131828812 heartbeat IPC: 3.362 cumulative IPC: 2.682 (Simulation time: 03 hr 20 min 26 sec)
Heartbeat CPU 0 instructions: 380000003 cycles: 134751431 heartbeat IPC: 3.422 cumulative IPC: 2.7 (Simulation time: 03 hr 25 min 26 sec)
Heartbeat CPU 0 instructions: 390000002 cycles: 137733240 heartbeat IPC: 3.354 cumulative IPC: 2.716 (Simulation time: 03 hr 30 min 26 sec)
Heartbeat CPU 0 instructions: 400000004 cycles: 140639367 heartbeat IPC: 3.441 cumulative IPC: 2.732 (Simulation time: 03 hr 35 min 23 sec)
Heartbeat CPU 0 instructions: 410000002 cycles: 143585866 heartbeat IPC: 3.394 cumulative IPC: 2.747 (Simulation time: 03 hr 40 min 19 sec)
Heartbeat CPU 0 instructions: 420000003 cycles: 146691806 heartbeat IPC: 3.22 cumulative IPC: 2.758 (Simulation time: 03 hr 45 min 23 sec)
Heartbeat CPU 0 instructions: 430000001 cycles: 149710759 heartbeat IPC: 3.312 cumulative IPC: 2.77 (Simulation time: 03 hr 50 min 36 sec)
Heartbeat CPU 0 instructions: 440000004 cycles: 152852545 heartbeat IPC: 3.183 cumulative IPC: 2.779 (Simulation time: 03 hr 55 min 39 sec)
Heartbeat CPU 0 instructions: 450000002 cycles: 155784352 heartbeat IPC: 3.411 cumulative IPC: 2.792 (Simulation time: 04 hr 00 min 38 sec)
Heartbeat CPU 0 instructions: 460000000 cycles: 158722969 heartbeat IPC: 3.403 cumulative IPC: 2.805 (Simulation time: 04 hr 05 min 36 sec)
Heartbeat CPU 0 instructions: 470000001 cycles: 161582333 heartbeat IPC: 3.497 cumulative IPC: 2.818 (Simulation time: 04 hr 10 min 28 sec)
Heartbeat CPU 0 instructions: 480000003 cycles: 164657478 heartbeat IPC: 3.252 cumulative IPC: 2.827 (Simulation time: 04 hr 15 min 30 sec)
Heartbeat CPU 0 instructions: 490000004 cycles: 167490580 heartbeat IPC: 3.53 cumulative IPC: 2.84 (Simulation time: 04 hr 20 min 21 sec)
Heartbeat CPU 0 instructions: 500000004 cycles: 170483531 heartbeat IPC: 3.341 cumulative IPC: 2.849 (Simulation time: 04 hr 25 min 23 sec)
Heartbeat CPU 0 instructions: 510000003 cycles: 173532981 heartbeat IPC: 3.279 cumulative IPC: 2.857 (Simulation time: 04 hr 30 min 31 sec)
Heartbeat CPU 0 instructions: 520000001 cycles: 176427146 heartbeat IPC: 3.455 cumulative IPC: 2.868 (Simulation time: 04 hr 35 min 36 sec)
Heartbeat CPU 0 instructions: 530000001 cycles: 179439747 heartbeat IPC: 3.319 cumulative IPC: 2.876 (Simulation time: 04 hr 40 min 35 sec)
Heartbeat CPU 0 instructions: 540000000 cycles: 182402182 heartbeat IPC: 3.376 cumulative IPC: 2.885 (Simulation time: 04 hr 45 min 35 sec)
Heartbeat CPU 0 instructions: 550000001 cycles: 185392517 heartbeat IPC: 3.344 cumulative IPC: 2.893 (Simulation time: 04 hr 50 min 38 sec)
Heartbeat CPU 0 instructions: 560000000 cycles: 188505821 heartbeat IPC: 3.212 cumulative IPC: 2.898 (Simulation time: 04 hr 55 min 40 sec)
Heartbeat CPU 0 instructions: 570000004 cycles: 193655793 heartbeat IPC: 1.942 cumulative IPC: 2.871 (Simulation time: 05 hr 02 min 12 sec)
Heartbeat CPU 0 instructions: 580000003 cycles: 199299655 heartbeat IPC: 1.772 cumulative IPC: 2.838 (Simulation time: 05 hr 09 min 18 sec)
Heartbeat CPU 0 instructions: 590000002 cycles: 209543415 heartbeat IPC: 0.9762 cumulative IPC: 2.741 (Simulation time: 05 hr 19 min 22 sec)
Heartbeat CPU 0 instructions: 600000004 cycles: 212631126 heartbeat IPC: 3.239 cumulative IPC: 2.749 (Simulation time: 05 hr 24 min 18 sec)
Heartbeat CPU 0 instructions: 610000002 cycles: 215599844 heartbeat IPC: 3.368 cumulative IPC: 2.758 (Simulation time: 05 hr 29 min 12 sec)
Heartbeat CPU 0 instructions: 620000001 cycles: 218374412 heartbeat IPC: 3.604 cumulative IPC: 2.769 (Simulation time: 05 hr 34 min 05 sec)
Heartbeat CPU 0 instructions: 630000002 cycles: 221349114 heartbeat IPC: 3.362 cumulative IPC: 2.778 (Simulation time: 05 hr 39 min 03 sec)
Heartbeat CPU 0 instructions: 640000004 cycles: 224300145 heartbeat IPC: 3.389 cumulative IPC: 2.786 (Simulation time: 05 hr 44 min 00 sec)
Heartbeat CPU 0 instructions: 650000000 cycles: 227050390 heartbeat IPC: 3.636 cumulative IPC: 2.797 (Simulation time: 05 hr 48 min 50 sec)
Simulation finished CPU 0 instructions: 600000001 cycles: 214513286 cumulative IPC: 2.797 (Simulation time: 05 hr 48 min 50 sec)
Simulation complete CPU 0 instructions: 600000001 cycles: 214513286 cumulative IPC: 2.797 (Simulation time: 05 hr 48 min 50 sec)

ChampSim completed all CPUs

=== Simulation ===
CPU 0 runs traces/400.perlbench-41B.champsimtrace.xz
Region of Interest Statistics

CPU 0 cumulative IPC: 2.797 instructions: 600000001 cycles: 214513286
CPU 0 Branch Prediction Accuracy: 99.19% MPKI: 1.684 Average ROB Occupancy at Mispredict: 101.6
Branch type MPKI
BRANCH_DIRECT_JUMP: 0.0123
BRANCH_INDIRECT: 0.323
BRANCH_CONDITIONAL: 1.14
BRANCH_DIRECT_CALL: 0.0043
BRANCH_INDIRECT_CALL: 0.2
BRANCH_RETURN: 0.00828

LLC TOTAL        ACCESS:     414642 HIT:     180443 MISS:     234199
LLC LOAD         ACCESS:     309581 HIT:     130059 MISS:     179522
LLC RFO          ACCESS:      25147 HIT:      10922 MISS:      14225
LLC PREFETCH     ACCESS:          0 HIT:          0 MISS:          0
LLC WRITE        ACCESS:      64143 HIT:      36178 MISS:      27965
LLC TRANSLATION  ACCESS:      15771 HIT:       3284 MISS:      12487
LLC PREFETCH REQUESTED:          0 ISSUED:          0 USEFUL:          0 USELESS:          0
LLC AVERAGE MISS LATENCY: 554.2 cycles
cpu0_DTLB TOTAL        ACCESS:  129724815 HIT:  129021981 MISS:     702834
cpu0_DTLB LOAD         ACCESS:  129724815 HIT:  129021981 MISS:     702834
cpu0_DTLB RFO          ACCESS:          0 HIT:          0 MISS:          0
cpu0_DTLB PREFETCH     ACCESS:          0 HIT:          0 MISS:          0
cpu0_DTLB WRITE        ACCESS:          0 HIT:          0 MISS:          0
cpu0_DTLB TRANSLATION  ACCESS:          0 HIT:          0 MISS:          0
cpu0_DTLB PREFETCH REQUESTED:          0 ISSUED:          0 USEFUL:          0 USELESS:          0
cpu0_DTLB AVERAGE MISS LATENCY: 16.68 cycles
cpu0_ITLB TOTAL        ACCESS:    4874395 HIT:    4811720 MISS:      62675
cpu0_ITLB LOAD         ACCESS:    4874395 HIT:    4811720 MISS:      62675
cpu0_ITLB RFO          ACCESS:          0 HIT:          0 MISS:          0
cpu0_ITLB PREFETCH     ACCESS:          0 HIT:          0 MISS:          0
cpu0_ITLB WRITE        ACCESS:          0 HIT:          0 MISS:          0
cpu0_ITLB TRANSLATION  ACCESS:          0 HIT:          0 MISS:          0
cpu0_ITLB PREFETCH REQUESTED:          0 ISSUED:          0 USEFUL:          0 USELESS:          0
cpu0_ITLB AVERAGE MISS LATENCY: 5.824 cycles
cpu0_L1D TOTAL        ACCESS:  174336547 HIT:  172956897 MISS:    1379650
cpu0_L1D LOAD         ACCESS:   91316185 HIT:   90249964 MISS:    1066221
cpu0_L1D RFO          ACCESS:          0 HIT:          0 MISS:          0
cpu0_L1D PREFETCH     ACCESS:          0 HIT:          0 MISS:          0
cpu0_L1D WRITE        ACCESS:   82995898 HIT:   82705333 MISS:     290565
cpu0_L1D TRANSLATION  ACCESS:      24464 HIT:       1600 MISS:      22864
cpu0_L1D PREFETCH REQUESTED:          0 ISSUED:          0 USEFUL:          0 USELESS:          0
cpu0_L1D AVERAGE MISS LATENCY: 95.19 cycles
cpu0_L1I TOTAL        ACCESS:    5653339 HIT:    4847180 MISS:     806159
cpu0_L1I LOAD         ACCESS:    5653339 HIT:    4847180 MISS:     806159
cpu0_L1I RFO          ACCESS:          0 HIT:          0 MISS:          0
cpu0_L1I PREFETCH     ACCESS:          0 HIT:          0 MISS:          0
cpu0_L1I WRITE        ACCESS:          0 HIT:          0 MISS:          0
cpu0_L1I TRANSLATION  ACCESS:          0 HIT:          0 MISS:          0
cpu0_L1I PREFETCH REQUESTED:          0 ISSUED:          0 USEFUL:          0 USELESS:          0
cpu0_L1I AVERAGE MISS LATENCY: 9.054 cycles
cpu0_L2C TOTAL        ACCESS:    1381664 HIT:    1030274 MISS:     351390
cpu0_L2C LOAD         ACCESS:    1124071 HIT:     814490 MISS:     309581
cpu0_L2C RFO          ACCESS:      64495 HIT:      39348 MISS:      25147
cpu0_L2C PREFETCH     ACCESS:          0 HIT:          0 MISS:          0
cpu0_L2C WRITE        ACCESS:     170320 HIT:     169429 MISS:        891
cpu0_L2C TRANSLATION  ACCESS:      22778 HIT:       7007 MISS:      15771
cpu0_L2C PREFETCH REQUESTED:          0 ISSUED:          0 USEFUL:          0 USELESS:          0
cpu0_L2C AVERAGE MISS LATENCY: 389.9 cycles
cpu0_STLB TOTAL        ACCESS:     508854 HIT:     486068 MISS:      22786
cpu0_STLB LOAD         ACCESS:     508854 HIT:     486068 MISS:      22786
cpu0_STLB RFO          ACCESS:          0 HIT:          0 MISS:          0
cpu0_STLB PREFETCH     ACCESS:          0 HIT:          0 MISS:          0
cpu0_STLB WRITE        ACCESS:          0 HIT:          0 MISS:          0
cpu0_STLB TRANSLATION  ACCESS:          0 HIT:          0 MISS:          0
cpu0_STLB PREFETCH REQUESTED:          0 ISSUED:          0 USEFUL:          0 USELESS:          0
cpu0_STLB AVERAGE MISS LATENCY: 412.7 cycles

DRAM Statistics

Channel 0 RQ ROW_BUFFER_HIT:      33351
  ROW_BUFFER_MISS:     172849
 AVG DBUS CONGESTED CYCLE: 3.828
WQ ROW_BUFFER_HIT: Channel 0 
  ROW_BUFFER_MISS:       5865
  FULL:      24446
