WARNING: physical memory size is smaller than virtual memory size.

*** ChampSim Multicore Out-of-Order Simulator ***
Warmup Instructions: 50000000
Simulation Instructions: 600000000
Number of CPUs: 1
Page size: 4096

CPU 0 Tage branch predictor
Off-chip DRAM Size: 4 GiB Channels: 1 Width: 64-bit Data Race: 3200 MT/s
Heartbeat CPU 0 instructions: 10000000 cycles: 2500061 heartbeat IPC: 4 cumulative IPC: 4 (Simulation time: 00 hr 03 min 59 sec)
Heartbeat CPU 0 instructions: 20000000 cycles: 5000061 heartbeat IPC: 4 cumulative IPC: 4 (Simulation time: 00 hr 08 min 07 sec)
Heartbeat CPU 0 instructions: 30000000 cycles: 7500061 heartbeat IPC: 4 cumulative IPC: 4 (Simulation time: 00 hr 12 min 06 sec)
Heartbeat CPU 0 instructions: 40000000 cycles: 10000061 heartbeat IPC: 4 cumulative IPC: 4 (Simulation time: 00 hr 16 min 08 sec)
Heartbeat CPU 0 instructions: 50000000 cycles: 12500061 heartbeat IPC: 4 cumulative IPC: 4 (Simulation time: 00 hr 20 min 10 sec)
Warmup finished CPU 0 instructions: 50000000 cycles: 12500062 cumulative IPC: 4 (Simulation time: 00 hr 20 min 10 sec)
Warmup complete CPU 0 instructions: 50000000 cycles: 12500062 cumulative IPC: 4 (Simulation time: 00 hr 20 min 10 sec)
Heartbeat CPU 0 instructions: 60000004 cycles: 15503755 heartbeat IPC: 3.329 cumulative IPC: 3.329 (Simulation time: 00 hr 24 min 47 sec)
Heartbeat CPU 0 instructions: 70000003 cycles: 18381707 heartbeat IPC: 3.475 cumulative IPC: 3.4 (Simulation time: 00 hr 29 min 02 sec)
Heartbeat CPU 0 instructions: 80000002 cycles: 21403704 heartbeat IPC: 3.309 cumulative IPC: 3.369 (Simulation time: 00 hr 33 min 05 sec)
Heartbeat CPU 0 instructions: 90000000 cycles: 24125815 heartbeat IPC: 3.674 cumulative IPC: 3.441 (Simulation time: 00 hr 36 min 50 sec)
Heartbeat CPU 0 instructions: 100000003 cycles: 26891989 heartbeat IPC: 3.615 cumulative IPC: 3.474 (Simulation time: 00 hr 40 min 33 sec)
Heartbeat CPU 0 instructions: 110000001 cycles: 29797284 heartbeat IPC: 3.442 cumulative IPC: 3.469 (Simulation time: 00 hr 44 min 04 sec)
Heartbeat CPU 0 instructions: 120000001 cycles: 32521234 heartbeat IPC: 3.671 cumulative IPC: 3.496 (Simulation time: 00 hr 47 min 27 sec)
Heartbeat CPU 0 instructions: 130000003 cycles: 35423852 heartbeat IPC: 3.445 cumulative IPC: 3.49 (Simulation time: 00 hr 50 min 48 sec)
Heartbeat CPU 0 instructions: 140000002 cycles: 38261887 heartbeat IPC: 3.524 cumulative IPC: 3.494 (Simulation time: 00 hr 53 min 56 sec)
Heartbeat CPU 0 instructions: 150000001 cycles: 41035123 heartbeat IPC: 3.606 cumulative IPC: 3.504 (Simulation time: 00 hr 57 min 01 sec)
Heartbeat CPU 0 instructions: 160000000 cycles: 43950598 heartbeat IPC: 3.43 cumulative IPC: 3.498 (Simulation time: 00 hr 59 min 54 sec)
Heartbeat CPU 0 instructions: 170000001 cycles: 46881585 heartbeat IPC: 3.412 cumulative IPC: 3.49 (Simulation time: 01 hr 03 min 02 sec)
Heartbeat CPU 0 instructions: 180000000 cycles: 49680006 heartbeat IPC: 3.573 cumulative IPC: 3.497 (Simulation time: 01 hr 06 min 10 sec)
Heartbeat CPU 0 instructions: 190000002 cycles: 52388588 heartbeat IPC: 3.692 cumulative IPC: 3.51 (Simulation time: 01 hr 09 min 17 sec)
Heartbeat CPU 0 instructions: 200000002 cycles: 55217844 heartbeat IPC: 3.534 cumulative IPC: 3.511 (Simulation time: 01 hr 12 min 27 sec)
Heartbeat CPU 0 instructions: 210000000 cycles: 58118387 heartbeat IPC: 3.448 cumulative IPC: 3.507 (Simulation time: 01 hr 15 min 39 sec)
Heartbeat CPU 0 instructions: 220000001 cycles: 60882780 heartbeat IPC: 3.617 cumulative IPC: 3.514 (Simulation time: 01 hr 18 min 41 sec)
Heartbeat CPU 0 instructions: 230000002 cycles: 63776762 heartbeat IPC: 3.455 cumulative IPC: 3.51 (Simulation time: 01 hr 21 min 45 sec)
Heartbeat CPU 0 instructions: 240000004 cycles: 66737040 heartbeat IPC: 3.378 cumulative IPC: 3.503 (Simulation time: 01 hr 24 min 54 sec)
Heartbeat CPU 0 instructions: 250000003 cycles: 69643859 heartbeat IPC: 3.44 cumulative IPC: 3.5 (Simulation time: 01 hr 27 min 49 sec)
Heartbeat CPU 0 instructions: 260000001 cycles: 72435927 heartbeat IPC: 3.582 cumulative IPC: 3.504 (Simulation time: 01 hr 30 min 46 sec)
Heartbeat CPU 0 instructions: 270000002 cycles: 77910030 heartbeat IPC: 1.827 cumulative IPC: 3.363 (Simulation time: 01 hr 34 min 59 sec)
Heartbeat CPU 0 instructions: 280000000 cycles: 86618298 heartbeat IPC: 1.148 cumulative IPC: 3.103 (Simulation time: 01 hr 40 min 39 sec)
Heartbeat CPU 0 instructions: 290000000 cycles: 94891379 heartbeat IPC: 1.209 cumulative IPC: 2.913 (Simulation time: 01 hr 46 min 10 sec)
Heartbeat CPU 0 instructions: 300000003 cycles: 100383890 heartbeat IPC: 1.821 cumulative IPC: 2.845 (Simulation time: 01 hr 50 min 37 sec)
Heartbeat CPU 0 instructions: 310000001 cycles: 109463033 heartbeat IPC: 1.101 cumulative IPC: 2.681 (Simulation time: 01 hr 56 min 37 sec)
Heartbeat CPU 0 instructions: 320000004 cycles: 113452197 heartbeat IPC: 2.507 cumulative IPC: 2.675 (Simulation time: 02 hr 00 min 20 sec)
Heartbeat CPU 0 instructions: 330000000 cycles: 116637158 heartbeat IPC: 3.14 cumulative IPC: 2.689 (Simulation time: 02 hr 03 min 37 sec)
Heartbeat CPU 0 instructions: 340000001 cycles: 119773967 heartbeat IPC: 3.188 cumulative IPC: 2.703 (Simulation time: 02 hr 06 min 48 sec)
Heartbeat CPU 0 instructions: 350000000 cycles: 123081952 heartbeat IPC: 3.023 cumulative IPC: 2.713 (Simulation time: 02 hr 10 min 06 sec)
Heartbeat CPU 0 instructions: 360000004 cycles: 126177138 heartbeat IPC: 3.231 cumulative IPC: 2.727 (Simulation time: 02 hr 13 min 25 sec)
Heartbeat CPU 0 instructions: 370000001 cycles: 129213888 heartbeat IPC: 3.293 cumulative IPC: 2.742 (Simulation time: 02 hr 16 min 35 sec)
Heartbeat CPU 0 instructions: 380000004 cycles: 132275876 heartbeat IPC: 3.266 cumulative IPC: 2.755 (Simulation time: 02 hr 19 min 57 sec)
Heartbeat CPU 0 instructions: 390000002 cycles: 135546634 heartbeat IPC: 3.057 cumulative IPC: 2.763 (Simulation time: 02 hr 23 min 15 sec)
Heartbeat CPU 0 instructions: 400000000 cycles: 138807609 heartbeat IPC: 3.067 cumulative IPC: 2.771 (Simulation time: 02 hr 26 min 30 sec)
Heartbeat CPU 0 instructions: 410000000 cycles: 144740264 heartbeat IPC: 1.686 cumulative IPC: 2.722 (Simulation time: 02 hr 30 min 54 sec)
Heartbeat CPU 0 instructions: 420000003 cycles: 153192042 heartbeat IPC: 1.183 cumulative IPC: 2.63 (Simulation time: 02 hr 36 min 41 sec)
Heartbeat CPU 0 instructions: 430000004 cycles: 158726895 heartbeat IPC: 1.807 cumulative IPC: 2.599 (Simulation time: 02 hr 41 min 05 sec)
Heartbeat CPU 0 instructions: 440000004 cycles: 164816735 heartbeat IPC: 1.642 cumulative IPC: 2.56 (Simulation time: 02 hr 45 min 46 sec)
Heartbeat CPU 0 instructions: 450000000 cycles: 170213294 heartbeat IPC: 1.853 cumulative IPC: 2.536 (Simulation time: 02 hr 50 min 07 sec)
Heartbeat CPU 0 instructions: 460000002 cycles: 180651756 heartbeat IPC: 0.958 cumulative IPC: 2.438 (Simulation time: 02 hr 56 min 42 sec)
Heartbeat CPU 0 instructions: 470000003 cycles: 189008398 heartbeat IPC: 1.197 cumulative IPC: 2.379 (Simulation time: 03 hr 02 min 16 sec)
Heartbeat CPU 0 instructions: 480000000 cycles: 192495132 heartbeat IPC: 2.868 cumulative IPC: 2.389 (Simulation time: 03 hr 05 min 45 sec)
Heartbeat CPU 0 instructions: 490000001 cycles: 195997570 heartbeat IPC: 2.855 cumulative IPC: 2.398 (Simulation time: 03 hr 09 min 13 sec)
Heartbeat CPU 0 instructions: 500000002 cycles: 199429184 heartbeat IPC: 2.914 cumulative IPC: 2.407 (Simulation time: 03 hr 12 min 30 sec)
Heartbeat CPU 0 instructions: 510000000 cycles: 202788323 heartbeat IPC: 2.977 cumulative IPC: 2.417 (Simulation time: 03 hr 15 min 54 sec)
Heartbeat CPU 0 instructions: 520000000 cycles: 206176175 heartbeat IPC: 2.952 cumulative IPC: 2.427 (Simulation time: 03 hr 19 min 19 sec)
Heartbeat CPU 0 instructions: 530000001 cycles: 214942105 heartbeat IPC: 1.141 cumulative IPC: 2.371 (Simulation time: 03 hr 25 min 10 sec)
Heartbeat CPU 0 instructions: 540000000 cycles: 224246000 heartbeat IPC: 1.075 cumulative IPC: 2.314 (Simulation time: 03 hr 30 min 53 sec)
Heartbeat CPU 0 instructions: 550000004 cycles: 235927278 heartbeat IPC: 0.8561 cumulative IPC: 2.238 (Simulation time: 03 hr 37 min 31 sec)
Heartbeat CPU 0 instructions: 560000004 cycles: 239838991 heartbeat IPC: 2.556 cumulative IPC: 2.243 (Simulation time: 03 hr 40 min 49 sec)
Heartbeat CPU 0 instructions: 570000002 cycles: 242667095 heartbeat IPC: 3.536 cumulative IPC: 2.259 (Simulation time: 03 hr 43 min 42 sec)
Heartbeat CPU 0 instructions: 580000000 cycles: 245600723 heartbeat IPC: 3.409 cumulative IPC: 2.274 (Simulation time: 03 hr 46 min 37 sec)
Heartbeat CPU 0 instructions: 590000001 cycles: 248536180 heartbeat IPC: 3.407 cumulative IPC: 2.288 (Simulation time: 03 hr 49 min 17 sec)
Heartbeat CPU 0 instructions: 600000003 cycles: 251234434 heartbeat IPC: 3.706 cumulative IPC: 2.304 (Simulation time: 03 hr 51 min 37 sec)
Heartbeat CPU 0 instructions: 610000001 cycles: 254109045 heartbeat IPC: 3.479 cumulative IPC: 2.318 (Simulation time: 03 hr 54 min 00 sec)
Heartbeat CPU 0 instructions: 620000004 cycles: 257063924 heartbeat IPC: 3.384 cumulative IPC: 2.331 (Simulation time: 03 hr 56 min 19 sec)
Heartbeat CPU 0 instructions: 630000002 cycles: 259874701 heartbeat IPC: 3.558 cumulative IPC: 2.345 (Simulation time: 03 hr 58 min 06 sec)
Heartbeat CPU 0 instructions: 640000004 cycles: 262915800 heartbeat IPC: 3.288 cumulative IPC: 2.356 (Simulation time: 03 hr 59 min 27 sec)
Heartbeat CPU 0 instructions: 650000001 cycles: 265620747 heartbeat IPC: 3.697 cumulative IPC: 2.37 (Simulation time: 04 hr 00 min 39 sec)
Simulation finished CPU 0 instructions: 600000001 cycles: 253120686 cumulative IPC: 2.37 (Simulation time: 04 hr 00 min 39 sec)
Simulation complete CPU 0 instructions: 600000001 cycles: 253120686 cumulative IPC: 2.37 (Simulation time: 04 hr 00 min 39 sec)

ChampSim completed all CPUs

=== Simulation ===
CPU 0 runs traces/400.perlbench-50B.champsimtrace.xz
Region of Interest Statistics

CPU 0 cumulative IPC: 2.37 instructions: 600000001 cycles: 253120686
CPU 0 Branch Prediction Accuracy: 99.01% MPKI: 2.04 Average ROB Occupancy at Mispredict: 94.27
Branch type MPKI
BRANCH_DIRECT_JUMP: 0.0176
BRANCH_INDIRECT: 0.38
BRANCH_CONDITIONAL: 1.19
BRANCH_DIRECT_CALL: 0.0067
BRANCH_INDIRECT_CALL: 0.431
BRANCH_RETURN: 0.0161

LLC TOTAL        ACCESS:     888076 HIT:     316216 MISS:     571860
LLC LOAD         ACCESS:     376792 HIT:     140300 MISS:     236492
LLC RFO          ACCESS:      32660 HIT:      11862 MISS:      20798
LLC PREFETCH     ACCESS:     376792 HIT:     124912 MISS:     251880
LLC WRITE        ACCESS:      83576 HIT:      38172 MISS:      45404
LLC TRANSLATION  ACCESS:      18256 HIT:        970 MISS:      17286
LLC PREFETCH REQUESTED:     376792 ISSUED:     376792 USEFUL:      63331 USELESS:     125839
LLC AVERAGE MISS LATENCY: 571.8 cycles
cpu0_DTLB TOTAL        ACCESS:  133159121 HIT:  131807547 MISS:    1351574
cpu0_DTLB LOAD         ACCESS:  133159121 HIT:  131807547 MISS:    1351574
cpu0_DTLB RFO          ACCESS:          0 HIT:          0 MISS:          0
cpu0_DTLB PREFETCH     ACCESS:          0 HIT:          0 MISS:          0
cpu0_DTLB WRITE        ACCESS:          0 HIT:          0 MISS:          0
cpu0_DTLB TRANSLATION  ACCESS:          0 HIT:          0 MISS:          0
cpu0_DTLB PREFETCH REQUESTED:          0 ISSUED:          0 USEFUL:          0 USELESS:          0
cpu0_DTLB AVERAGE MISS LATENCY: 15.33 cycles
cpu0_ITLB TOTAL        ACCESS:    8992108 HIT:    8781721 MISS:     210387
cpu0_ITLB LOAD         ACCESS:    8992108 HIT:    8781721 MISS:     210387
cpu0_ITLB RFO          ACCESS:          0 HIT:          0 MISS:          0
cpu0_ITLB PREFETCH     ACCESS:          0 HIT:          0 MISS:          0
cpu0_ITLB WRITE        ACCESS:          0 HIT:          0 MISS:          0
cpu0_ITLB TRANSLATION  ACCESS:          0 HIT:          0 MISS:          0
cpu0_ITLB PREFETCH REQUESTED:          0 ISSUED:          0 USEFUL:          0 USELESS:          0
cpu0_ITLB AVERAGE MISS LATENCY: 3.594 cycles
cpu0_L1D TOTAL        ACCESS:  178232922 HIT:  175307980 MISS:    2924942
cpu0_L1D LOAD         ACCESS:   92714505 HIT:   90312669 MISS:    2401836
cpu0_L1D RFO          ACCESS:          0 HIT:          0 MISS:          0
cpu0_L1D PREFETCH     ACCESS:          0 HIT:          0 MISS:          0
cpu0_L1D WRITE        ACCESS:   85489879 HIT:   84993312 MISS:     496567
cpu0_L1D TRANSLATION  ACCESS:      28538 HIT:       1999 MISS:      26539
cpu0_L1D PREFETCH REQUESTED:          0 ISSUED:          0 USEFUL:          0 USELESS:          0
cpu0_L1D AVERAGE MISS LATENCY: 64.51 cycles
cpu0_L1I TOTAL        ACCESS:   10511904 HIT:    8612212 MISS:    1899692
cpu0_L1I LOAD         ACCESS:   10511904 HIT:    8612212 MISS:    1899692
cpu0_L1I RFO          ACCESS:          0 HIT:          0 MISS:          0
cpu0_L1I PREFETCH     ACCESS:          0 HIT:          0 MISS:          0
cpu0_L1I WRITE        ACCESS:          0 HIT:          0 MISS:          0
cpu0_L1I TRANSLATION  ACCESS:          0 HIT:          0 MISS:          0
cpu0_L1I PREFETCH REQUESTED:          0 ISSUED:          0 USEFUL:          0 USELESS:          0
cpu0_L1I AVERAGE MISS LATENCY: 13.01 cycles
cpu0_L2C TOTAL        ACCESS:    3235941 HIT:    2807308 MISS:     428633
cpu0_L2C LOAD         ACCESS:    2709139 HIT:    2332347 MISS:     376792
cpu0_L2C RFO          ACCESS:     135541 HIT:     102881 MISS:      32660
cpu0_L2C PREFETCH     ACCESS:          0 HIT:          0 MISS:          0
cpu0_L2C WRITE        ACCESS:     364809 HIT:     363884 MISS:        925
cpu0_L2C TRANSLATION  ACCESS:      26452 HIT:       8196 MISS:      18256
cpu0_L2C PREFETCH REQUESTED:          0 ISSUED:          0 USEFUL:          0 USELESS:          0
cpu0_L2C AVERAGE MISS LATENCY: 460 cycles
cpu0_STLB TOTAL        ACCESS:    1010042 HIT:     983350 MISS:      26692
cpu0_STLB LOAD         ACCESS:    1010042 HIT:     983350 MISS:      26692
cpu0_STLB RFO          ACCESS:          0 HIT:          0 MISS:          0
cpu0_STLB PREFETCH     ACCESS:          0 HIT:          0 MISS:          0
cpu0_STLB WRITE        ACCESS:          0 HIT:          0 MISS:          0
cpu0_STLB TRANSLATION  ACCESS:          0 HIT:          0 MISS:          0
cpu0_STLB PREFETCH REQUESTED:          0 ISSUED:          0 USEFUL:          0 USELESS:          0
cpu0_STLB AVERAGE MISS LATENCY: 588.9 cycles

DRAM Statistics

Channel 0 RQ ROW_BUFFER_HIT:      81303
  ROW_BUFFER_MISS:     358853
 AVG DBUS CONGESTED CYCLE: 3.893
WQ ROW_BUFFER_HIT: Channel 0 
  ROW_BUFFER_MISS:       4920
  FULL:      44248
