WARNING: physical memory size is smaller than virtual memory size.

*** ChampSim Multicore Out-of-Order Simulator ***
Warmup Instructions: 50000000
Simulation Instructions: 600000000
Number of CPUs: 1
Page size: 4096

CPU 0 Tage branch predictor
Off-chip DRAM Size: 4 GiB Channels: 1 Width: 64-bit Data Race: 3200 MT/s
Heartbeat CPU 0 instructions: 10000000 cycles: 2500061 heartbeat IPC: 4 cumulative IPC: 4 (Simulation time: 00 hr 04 min 10 sec)
Heartbeat CPU 0 instructions: 20000000 cycles: 5000061 heartbeat IPC: 4 cumulative IPC: 4 (Simulation time: 00 hr 08 min 20 sec)
Heartbeat CPU 0 instructions: 30000000 cycles: 7500061 heartbeat IPC: 4 cumulative IPC: 4 (Simulation time: 00 hr 12 min 27 sec)
Heartbeat CPU 0 instructions: 40000000 cycles: 10000061 heartbeat IPC: 4 cumulative IPC: 4 (Simulation time: 00 hr 16 min 37 sec)
Heartbeat CPU 0 instructions: 50000000 cycles: 12500061 heartbeat IPC: 4 cumulative IPC: 4 (Simulation time: 00 hr 20 min 45 sec)
Warmup finished CPU 0 instructions: 50000000 cycles: 12500062 cumulative IPC: 4 (Simulation time: 00 hr 20 min 45 sec)
Warmup complete CPU 0 instructions: 50000000 cycles: 12500062 cumulative IPC: 4 (Simulation time: 00 hr 20 min 45 sec)
Heartbeat CPU 0 instructions: 60000004 cycles: 15503998 heartbeat IPC: 3.329 cumulative IPC: 3.329 (Simulation time: 00 hr 25 min 43 sec)
Heartbeat CPU 0 instructions: 70000003 cycles: 18369852 heartbeat IPC: 3.489 cumulative IPC: 3.407 (Simulation time: 00 hr 30 min 34 sec)
Heartbeat CPU 0 instructions: 80000002 cycles: 21380918 heartbeat IPC: 3.321 cumulative IPC: 3.378 (Simulation time: 00 hr 35 min 28 sec)
Heartbeat CPU 0 instructions: 90000000 cycles: 24098695 heartbeat IPC: 3.679 cumulative IPC: 3.449 (Simulation time: 00 hr 40 min 14 sec)
Heartbeat CPU 0 instructions: 100000003 cycles: 26855195 heartbeat IPC: 3.628 cumulative IPC: 3.483 (Simulation time: 00 hr 45 min 04 sec)
Heartbeat CPU 0 instructions: 110000001 cycles: 29752526 heartbeat IPC: 3.451 cumulative IPC: 3.478 (Simulation time: 00 hr 49 min 51 sec)
Heartbeat CPU 0 instructions: 120000001 cycles: 32468927 heartbeat IPC: 3.681 cumulative IPC: 3.505 (Simulation time: 00 hr 54 min 38 sec)
Heartbeat CPU 0 instructions: 130000003 cycles: 35368195 heartbeat IPC: 3.449 cumulative IPC: 3.498 (Simulation time: 00 hr 59 min 29 sec)
Heartbeat CPU 0 instructions: 140000002 cycles: 38202123 heartbeat IPC: 3.529 cumulative IPC: 3.502 (Simulation time: 01 hr 04 min 17 sec)
Heartbeat CPU 0 instructions: 150000001 cycles: 40972190 heartbeat IPC: 3.61 cumulative IPC: 3.512 (Simulation time: 01 hr 09 min 05 sec)
Heartbeat CPU 0 instructions: 160000000 cycles: 43889670 heartbeat IPC: 3.428 cumulative IPC: 3.504 (Simulation time: 01 hr 13 min 57 sec)
Heartbeat CPU 0 instructions: 170000001 cycles: 46817544 heartbeat IPC: 3.415 cumulative IPC: 3.497 (Simulation time: 01 hr 19 min 05 sec)
Heartbeat CPU 0 instructions: 180000000 cycles: 49608288 heartbeat IPC: 3.583 cumulative IPC: 3.503 (Simulation time: 01 hr 23 min 58 sec)
Heartbeat CPU 0 instructions: 190000002 cycles: 52316250 heartbeat IPC: 3.693 cumulative IPC: 3.516 (Simulation time: 01 hr 28 min 47 sec)
Heartbeat CPU 0 instructions: 200000002 cycles: 55136667 heartbeat IPC: 3.546 cumulative IPC: 3.518 (Simulation time: 01 hr 33 min 44 sec)
Heartbeat CPU 0 instructions: 210000000 cycles: 58029132 heartbeat IPC: 3.457 cumulative IPC: 3.514 (Simulation time: 01 hr 38 min 43 sec)
Heartbeat CPU 0 instructions: 220000001 cycles: 60781160 heartbeat IPC: 3.634 cumulative IPC: 3.521 (Simulation time: 01 hr 43 min 40 sec)
Heartbeat CPU 0 instructions: 230000002 cycles: 63670325 heartbeat IPC: 3.461 cumulative IPC: 3.518 (Simulation time: 01 hr 48 min 37 sec)
Heartbeat CPU 0 instructions: 240000004 cycles: 66621070 heartbeat IPC: 3.389 cumulative IPC: 3.511 (Simulation time: 01 hr 53 min 34 sec)
Heartbeat CPU 0 instructions: 250000003 cycles: 69511506 heartbeat IPC: 3.46 cumulative IPC: 3.508 (Simulation time: 01 hr 58 min 25 sec)
Heartbeat CPU 0 instructions: 260000001 cycles: 72296303 heartbeat IPC: 3.591 cumulative IPC: 3.512 (Simulation time: 02 hr 03 min 11 sec)
Heartbeat CPU 0 instructions: 270000002 cycles: 78109458 heartbeat IPC: 1.72 cumulative IPC: 3.353 (Simulation time: 02 hr 10 min 10 sec)
Heartbeat CPU 0 instructions: 280000000 cycles: 88022727 heartbeat IPC: 1.009 cumulative IPC: 3.045 (Simulation time: 02 hr 19 min 55 sec)
Heartbeat CPU 0 instructions: 290000000 cycles: 97245333 heartbeat IPC: 1.084 cumulative IPC: 2.832 (Simulation time: 02 hr 29 min 18 sec)
Heartbeat CPU 0 instructions: 300000003 cycles: 102854382 heartbeat IPC: 1.783 cumulative IPC: 2.767 (Simulation time: 02 hr 36 min 26 sec)
Heartbeat CPU 0 instructions: 310000001 cycles: 111848865 heartbeat IPC: 1.112 cumulative IPC: 2.617 (Simulation time: 02 hr 45 min 54 sec)
Heartbeat CPU 0 instructions: 320000004 cycles: 115860112 heartbeat IPC: 2.493 cumulative IPC: 2.612 (Simulation time: 02 hr 51 min 51 sec)
Heartbeat CPU 0 instructions: 330000000 cycles: 119010074 heartbeat IPC: 3.175 cumulative IPC: 2.629 (Simulation time: 02 hr 57 min 08 sec)
Heartbeat CPU 0 instructions: 340000001 cycles: 122083491 heartbeat IPC: 3.254 cumulative IPC: 2.646 (Simulation time: 03 hr 02 min 13 sec)
Heartbeat CPU 0 instructions: 350000000 cycles: 125163740 heartbeat IPC: 3.246 cumulative IPC: 2.663 (Simulation time: 03 hr 07 min 23 sec)
Heartbeat CPU 0 instructions: 360000004 cycles: 127996672 heartbeat IPC: 3.53 cumulative IPC: 2.684 (Simulation time: 03 hr 12 min 20 sec)
Heartbeat CPU 0 instructions: 370000001 cycles: 130788097 heartbeat IPC: 3.582 cumulative IPC: 2.705 (Simulation time: 03 hr 17 min 11 sec)
Heartbeat CPU 0 instructions: 380000004 cycles: 133603039 heartbeat IPC: 3.552 cumulative IPC: 2.725 (Simulation time: 03 hr 22 min 07 sec)
Heartbeat CPU 0 instructions: 390000002 cycles: 136535725 heartbeat IPC: 3.41 cumulative IPC: 2.741 (Simulation time: 03 hr 27 min 09 sec)
Heartbeat CPU 0 instructions: 400000000 cycles: 139473535 heartbeat IPC: 3.404 cumulative IPC: 2.756 (Simulation time: 03 hr 32 min 07 sec)
Heartbeat CPU 0 instructions: 410000000 cycles: 145107861 heartbeat IPC: 1.775 cumulative IPC: 2.715 (Simulation time: 03 hr 38 min 58 sec)
Heartbeat CPU 0 instructions: 420000003 cycles: 154431849 heartbeat IPC: 1.073 cumulative IPC: 2.607 (Simulation time: 03 hr 48 min 24 sec)
Heartbeat CPU 0 instructions: 430000004 cycles: 160206693 heartbeat IPC: 1.732 cumulative IPC: 2.573 (Simulation time: 03 hr 55 min 41 sec)
Heartbeat CPU 0 instructions: 440000004 cycles: 166378059 heartbeat IPC: 1.62 cumulative IPC: 2.534 (Simulation time: 04 hr 03 min 09 sec)
Heartbeat CPU 0 instructions: 450000000 cycles: 172056183 heartbeat IPC: 1.761 cumulative IPC: 2.507 (Simulation time: 04 hr 10 min 16 sec)
Heartbeat CPU 0 instructions: 460000002 cycles: 182623015 heartbeat IPC: 0.9464 cumulative IPC: 2.41 (Simulation time: 04 hr 20 min 34 sec)
Heartbeat CPU 0 instructions: 470000003 cycles: 190759361 heartbeat IPC: 1.229 cumulative IPC: 2.356 (Simulation time: 04 hr 29 min 20 sec)
Heartbeat CPU 0 instructions: 480000000 cycles: 194192018 heartbeat IPC: 2.913 cumulative IPC: 2.367 (Simulation time: 04 hr 34 min 40 sec)
Heartbeat CPU 0 instructions: 490000001 cycles: 197360300 heartbeat IPC: 3.156 cumulative IPC: 2.38 (Simulation time: 04 hr 39 min 52 sec)
Heartbeat CPU 0 instructions: 500000002 cycles: 200350425 heartbeat IPC: 3.344 cumulative IPC: 2.396 (Simulation time: 04 hr 44 min 55 sec)
Heartbeat CPU 0 instructions: 510000000 cycles: 203211874 heartbeat IPC: 3.495 cumulative IPC: 2.412 (Simulation time: 04 hr 49 min 50 sec)
Heartbeat CPU 0 instructions: 520000000 cycles: 206114335 heartbeat IPC: 3.445 cumulative IPC: 2.428 (Simulation time: 04 hr 54 min 50 sec)
Heartbeat CPU 0 instructions: 530000001 cycles: 214771845 heartbeat IPC: 1.155 cumulative IPC: 2.373 (Simulation time: 05 hr 03 min 59 sec)
Heartbeat CPU 0 instructions: 540000000 cycles: 224641015 heartbeat IPC: 1.013 cumulative IPC: 2.31 (Simulation time: 05 hr 13 min 46 sec)
Heartbeat CPU 0 instructions: 550000004 cycles: 236110119 heartbeat IPC: 0.8719 cumulative IPC: 2.236 (Simulation time: 05 hr 24 min 45 sec)
Heartbeat CPU 0 instructions: 560000004 cycles: 239918043 heartbeat IPC: 2.626 cumulative IPC: 2.243 (Simulation time: 05 hr 30 min 09 sec)
Heartbeat CPU 0 instructions: 570000002 cycles: 242742804 heartbeat IPC: 3.54 cumulative IPC: 2.258 (Simulation time: 05 hr 35 min 06 sec)
Heartbeat CPU 0 instructions: 580000000 cycles: 245669758 heartbeat IPC: 3.417 cumulative IPC: 2.273 (Simulation time: 05 hr 39 min 58 sec)
Heartbeat CPU 0 instructions: 590000001 cycles: 248595010 heartbeat IPC: 3.419 cumulative IPC: 2.287 (Simulation time: 05 hr 44 min 54 sec)
Heartbeat CPU 0 instructions: 600000003 cycles: 251287726 heartbeat IPC: 3.714 cumulative IPC: 2.303 (Simulation time: 05 hr 49 min 46 sec)
Heartbeat CPU 0 instructions: 610000001 cycles: 254151734 heartbeat IPC: 3.492 cumulative IPC: 2.317 (Simulation time: 05 hr 54 min 43 sec)
Heartbeat CPU 0 instructions: 620000004 cycles: 257102465 heartbeat IPC: 3.389 cumulative IPC: 2.33 (Simulation time: 05 hr 59 min 40 sec)
Heartbeat CPU 0 instructions: 630000002 cycles: 259912505 heartbeat IPC: 3.559 cumulative IPC: 2.344 (Simulation time: 06 hr 04 min 35 sec)
Heartbeat CPU 0 instructions: 640000004 cycles: 262957640 heartbeat IPC: 3.284 cumulative IPC: 2.356 (Simulation time: 06 hr 09 min 36 sec)
Heartbeat CPU 0 instructions: 650000001 cycles: 265664785 heartbeat IPC: 3.694 cumulative IPC: 2.37 (Simulation time: 06 hr 14 min 23 sec)
Simulation finished CPU 0 instructions: 600000001 cycles: 253164724 cumulative IPC: 2.37 (Simulation time: 06 hr 14 min 23 sec)
Simulation complete CPU 0 instructions: 600000001 cycles: 253164724 cumulative IPC: 2.37 (Simulation time: 06 hr 14 min 23 sec)

ChampSim completed all CPUs

=== Simulation ===
CPU 0 runs traces/400.perlbench-50B.champsimtrace.xz
Region of Interest Statistics

CPU 0 cumulative IPC: 2.37 instructions: 600000001 cycles: 253164724
CPU 0 Branch Prediction Accuracy: 99.01% MPKI: 2.04 Average ROB Occupancy at Mispredict: 94.63
Branch type MPKI
BRANCH_DIRECT_JUMP: 0.0176
BRANCH_INDIRECT: 0.38
BRANCH_CONDITIONAL: 1.19
BRANCH_DIRECT_CALL: 0.0067
BRANCH_INDIRECT_CALL: 0.431
BRANCH_RETURN: 0.0161

LLC TOTAL        ACCESS:     511763 HIT:     151677 MISS:     360086
LLC LOAD         ACCESS:     377133 HIT:     104640 MISS:     272493
LLC RFO          ACCESS:      32665 HIT:      10144 MISS:      22521
LLC PREFETCH     ACCESS:          0 HIT:          0 MISS:          0
LLC WRITE        ACCESS:      83794 HIT:      35000 MISS:      48794
LLC TRANSLATION  ACCESS:      18171 HIT:       1893 MISS:      16278
LLC PREFETCH REQUESTED:          0 ISSUED:          0 USEFUL:          0 USELESS:          0
LLC AVERAGE MISS LATENCY: 529.5 cycles
cpu0_DTLB TOTAL        ACCESS:  133139975 HIT:  131787718 MISS:    1352257
cpu0_DTLB LOAD         ACCESS:  133139975 HIT:  131787718 MISS:    1352257
cpu0_DTLB RFO          ACCESS:          0 HIT:          0 MISS:          0
cpu0_DTLB PREFETCH     ACCESS:          0 HIT:          0 MISS:          0
cpu0_DTLB WRITE        ACCESS:          0 HIT:          0 MISS:          0
cpu0_DTLB TRANSLATION  ACCESS:          0 HIT:          0 MISS:          0
cpu0_DTLB PREFETCH REQUESTED:          0 ISSUED:          0 USEFUL:          0 USELESS:          0
cpu0_DTLB AVERAGE MISS LATENCY: 13.91 cycles
cpu0_ITLB TOTAL        ACCESS:    8994432 HIT:    8784135 MISS:     210297
cpu0_ITLB LOAD         ACCESS:    8994432 HIT:    8784135 MISS:     210297
cpu0_ITLB RFO          ACCESS:          0 HIT:          0 MISS:          0
cpu0_ITLB PREFETCH     ACCESS:          0 HIT:          0 MISS:          0
cpu0_ITLB WRITE        ACCESS:          0 HIT:          0 MISS:          0
cpu0_ITLB TRANSLATION  ACCESS:          0 HIT:          0 MISS:          0
cpu0_ITLB PREFETCH REQUESTED:          0 ISSUED:          0 USEFUL:          0 USELESS:          0
cpu0_ITLB AVERAGE MISS LATENCY: 3.27 cycles
cpu0_L1D TOTAL        ACCESS:  178209383 HIT:  175268576 MISS:    2940807
cpu0_L1D LOAD         ACCESS:   92692460 HIT:   90277717 MISS:    2414743
cpu0_L1D RFO          ACCESS:          0 HIT:          0 MISS:          0
cpu0_L1D PREFETCH     ACCESS:          0 HIT:          0 MISS:          0
cpu0_L1D WRITE        ACCESS:   85488396 HIT:   84988861 MISS:     499535
cpu0_L1D TRANSLATION  ACCESS:      28527 HIT:       1998 MISS:      26529
cpu0_L1D PREFETCH REQUESTED:          0 ISSUED:          0 USEFUL:          0 USELESS:          0
cpu0_L1D AVERAGE MISS LATENCY: 64.37 cycles
cpu0_L1I TOTAL        ACCESS:   10513932 HIT:    8613596 MISS:    1900336
cpu0_L1I LOAD         ACCESS:   10513932 HIT:    8613596 MISS:    1900336
cpu0_L1I RFO          ACCESS:          0 HIT:          0 MISS:          0
cpu0_L1I PREFETCH     ACCESS:          0 HIT:          0 MISS:          0
cpu0_L1I WRITE        ACCESS:          0 HIT:          0 MISS:          0
cpu0_L1I TRANSLATION  ACCESS:          0 HIT:          0 MISS:          0
cpu0_L1I PREFETCH REQUESTED:          0 ISSUED:          0 USEFUL:          0 USELESS:          0
cpu0_L1I AVERAGE MISS LATENCY: 12.89 cycles
cpu0_L2C TOTAL        ACCESS:    3236142 HIT:    2807209 MISS:     428933
cpu0_L2C LOAD         ACCESS:    2709159 HIT:    2332026 MISS:     377133
cpu0_L2C RFO          ACCESS:     135544 HIT:     102879 MISS:      32665
cpu0_L2C PREFETCH     ACCESS:          0 HIT:          0 MISS:          0
cpu0_L2C WRITE        ACCESS:     364991 HIT:     364027 MISS:        964
cpu0_L2C TRANSLATION  ACCESS:      26448 HIT:       8277 MISS:      18171
cpu0_L2C PREFETCH REQUESTED:          0 ISSUED:          0 USEFUL:          0 USELESS:          0
cpu0_L2C AVERAGE MISS LATENCY: 465.2 cycles
cpu0_STLB TOTAL        ACCESS:    1010045 HIT:     983358 MISS:      26687
cpu0_STLB LOAD         ACCESS:    1010045 HIT:     983358 MISS:      26687
cpu0_STLB RFO          ACCESS:          0 HIT:          0 MISS:          0
cpu0_STLB PREFETCH     ACCESS:          0 HIT:          0 MISS:          0
cpu0_STLB WRITE        ACCESS:          0 HIT:          0 MISS:          0
cpu0_STLB TRANSLATION  ACCESS:          0 HIT:          0 MISS:          0
cpu0_STLB PREFETCH REQUESTED:          0 ISSUED:          0 USEFUL:          0 USELESS:          0
cpu0_STLB AVERAGE MISS LATENCY: 510.3 cycles

DRAM Statistics

Channel 0 RQ ROW_BUFFER_HIT:      52647
  ROW_BUFFER_MISS:     258464
 AVG DBUS CONGESTED CYCLE: 3.839
WQ ROW_BUFFER_HIT: Channel 0 
  ROW_BUFFER_MISS:       7167
  FULL:      42553
