WARNING: physical memory size is smaller than virtual memory size.

*** ChampSim Multicore Out-of-Order Simulator ***
Warmup Instructions: 50000000
Simulation Instructions: 600000000
Number of CPUs: 1
Page size: 4096

Off-chip DRAM Size: 4 GiB Channels: 1 Width: 64-bit Data Race: 3200 MT/s
Heartbeat CPU 0 instructions: 10000001 cycles: 2500318 heartbeat IPC: 3.999 cumulative IPC: 3.999 (Simulation time: 00 hr 03 min 43 sec)
Heartbeat CPU 0 instructions: 20000002 cycles: 5037087 heartbeat IPC: 3.942 cumulative IPC: 3.971 (Simulation time: 00 hr 07 min 21 sec)
Heartbeat CPU 0 instructions: 30000002 cycles: 7537087 heartbeat IPC: 4 cumulative IPC: 3.98 (Simulation time: 00 hr 10 min 41 sec)
Heartbeat CPU 0 instructions: 40000002 cycles: 10037087 heartbeat IPC: 4 cumulative IPC: 3.985 (Simulation time: 00 hr 13 min 53 sec)
Heartbeat CPU 0 instructions: 50000002 cycles: 12537087 heartbeat IPC: 4 cumulative IPC: 3.988 (Simulation time: 00 hr 17 min 14 sec)
Warmup finished CPU 0 instructions: 50000002 cycles: 12537088 cumulative IPC: 3.988 (Simulation time: 00 hr 17 min 14 sec)
Warmup complete CPU 0 instructions: 50000002 cycles: 12537088 cumulative IPC: 3.988 (Simulation time: 00 hr 17 min 14 sec)
Heartbeat CPU 0 instructions: 60000000 cycles: 17694634 heartbeat IPC: 1.939 cumulative IPC: 1.939 (Simulation time: 00 hr 22 min 05 sec)
Heartbeat CPU 0 instructions: 70000002 cycles: 22580376 heartbeat IPC: 2.047 cumulative IPC: 1.991 (Simulation time: 00 hr 26 min 28 sec)
Heartbeat CPU 0 instructions: 80000001 cycles: 27932802 heartbeat IPC: 1.868 cumulative IPC: 1.949 (Simulation time: 00 hr 30 min 45 sec)
Heartbeat CPU 0 instructions: 90000001 cycles: 32808873 heartbeat IPC: 2.051 cumulative IPC: 1.973 (Simulation time: 00 hr 34 min 50 sec)
Heartbeat CPU 0 instructions: 100000000 cycles: 37915974 heartbeat IPC: 1.958 cumulative IPC: 1.97 (Simulation time: 00 hr 38 min 40 sec)
Heartbeat CPU 0 instructions: 110000000 cycles: 42799746 heartbeat IPC: 2.048 cumulative IPC: 1.983 (Simulation time: 00 hr 42 min 19 sec)
Heartbeat CPU 0 instructions: 120000001 cycles: 47992154 heartbeat IPC: 1.926 cumulative IPC: 1.974 (Simulation time: 00 hr 45 min 59 sec)
Heartbeat CPU 0 instructions: 130000001 cycles: 53140156 heartbeat IPC: 1.943 cumulative IPC: 1.97 (Simulation time: 00 hr 49 min 27 sec)
Heartbeat CPU 0 instructions: 140000001 cycles: 58443194 heartbeat IPC: 1.886 cumulative IPC: 1.961 (Simulation time: 00 hr 53 min 01 sec)
Heartbeat CPU 0 instructions: 150000001 cycles: 63758195 heartbeat IPC: 1.881 cumulative IPC: 1.952 (Simulation time: 00 hr 56 min 25 sec)
Heartbeat CPU 0 instructions: 160000004 cycles: 68960563 heartbeat IPC: 1.922 cumulative IPC: 1.95 (Simulation time: 00 hr 59 min 54 sec)
Heartbeat CPU 0 instructions: 170000000 cycles: 78231641 heartbeat IPC: 1.079 cumulative IPC: 1.827 (Simulation time: 01 hr 05 min 11 sec)
Heartbeat CPU 0 instructions: 180000004 cycles: 87294836 heartbeat IPC: 1.103 cumulative IPC: 1.739 (Simulation time: 01 hr 10 min 27 sec)
Heartbeat CPU 0 instructions: 190000001 cycles: 97478754 heartbeat IPC: 0.9819 cumulative IPC: 1.648 (Simulation time: 01 hr 16 min 05 sec)
Heartbeat CPU 0 instructions: 200000003 cycles: 102225207 heartbeat IPC: 2.107 cumulative IPC: 1.672 (Simulation time: 01 hr 19 min 21 sec)
Heartbeat CPU 0 instructions: 210000001 cycles: 107122690 heartbeat IPC: 2.042 cumulative IPC: 1.692 (Simulation time: 01 hr 22 min 41 sec)
Heartbeat CPU 0 instructions: 220000000 cycles: 111938944 heartbeat IPC: 2.076 cumulative IPC: 1.71 (Simulation time: 01 hr 25 min 56 sec)
Heartbeat CPU 0 instructions: 230000002 cycles: 117200775 heartbeat IPC: 1.9 cumulative IPC: 1.72 (Simulation time: 01 hr 29 min 25 sec)
Heartbeat CPU 0 instructions: 240000000 cycles: 122018838 heartbeat IPC: 2.076 cumulative IPC: 1.735 (Simulation time: 01 hr 32 min 43 sec)
Heartbeat CPU 0 instructions: 250000000 cycles: 127137717 heartbeat IPC: 1.954 cumulative IPC: 1.745 (Simulation time: 01 hr 36 min 03 sec)
Heartbeat CPU 0 instructions: 260000000 cycles: 132135416 heartbeat IPC: 2.001 cumulative IPC: 1.756 (Simulation time: 01 hr 39 min 18 sec)
Heartbeat CPU 0 instructions: 270000002 cycles: 137001354 heartbeat IPC: 2.055 cumulative IPC: 1.768 (Simulation time: 01 hr 42 min 37 sec)
Heartbeat CPU 0 instructions: 280000002 cycles: 141878281 heartbeat IPC: 2.05 cumulative IPC: 1.778 (Simulation time: 01 hr 45 min 52 sec)
Heartbeat CPU 0 instructions: 290000001 cycles: 147229480 heartbeat IPC: 1.869 cumulative IPC: 1.782 (Simulation time: 01 hr 49 min 22 sec)
Heartbeat CPU 0 instructions: 300000003 cycles: 152250718 heartbeat IPC: 1.992 cumulative IPC: 1.789 (Simulation time: 01 hr 52 min 39 sec)
Heartbeat CPU 0 instructions: 310000001 cycles: 157512719 heartbeat IPC: 1.9 cumulative IPC: 1.793 (Simulation time: 01 hr 56 min 03 sec)
Heartbeat CPU 0 instructions: 320000003 cycles: 162695391 heartbeat IPC: 1.93 cumulative IPC: 1.798 (Simulation time: 01 hr 59 min 36 sec)
Heartbeat CPU 0 instructions: 330000003 cycles: 167959806 heartbeat IPC: 1.9 cumulative IPC: 1.802 (Simulation time: 02 hr 03 min 07 sec)
Heartbeat CPU 0 instructions: 340000000 cycles: 177229313 heartbeat IPC: 1.079 cumulative IPC: 1.761 (Simulation time: 02 hr 08 min 13 sec)
Heartbeat CPU 0 instructions: 350000000 cycles: 186852598 heartbeat IPC: 1.039 cumulative IPC: 1.721 (Simulation time: 02 hr 13 min 36 sec)
Heartbeat CPU 0 instructions: 360000004 cycles: 197136261 heartbeat IPC: 0.9724 cumulative IPC: 1.679 (Simulation time: 02 hr 19 min 10 sec)
Heartbeat CPU 0 instructions: 370000000 cycles: 201526867 heartbeat IPC: 2.278 cumulative IPC: 1.693 (Simulation time: 02 hr 22 min 19 sec)
Heartbeat CPU 0 instructions: 380000001 cycles: 206433169 heartbeat IPC: 2.038 cumulative IPC: 1.702 (Simulation time: 02 hr 25 min 37 sec)
Heartbeat CPU 0 instructions: 390000002 cycles: 211246182 heartbeat IPC: 2.078 cumulative IPC: 1.711 (Simulation time: 02 hr 28 min 55 sec)
Heartbeat CPU 0 instructions: 400000004 cycles: 216169942 heartbeat IPC: 2.031 cumulative IPC: 1.719 (Simulation time: 02 hr 32 min 13 sec)
Heartbeat CPU 0 instructions: 410000000 cycles: 220885673 heartbeat IPC: 2.121 cumulative IPC: 1.728 (Simulation time: 02 hr 35 min 37 sec)
Heartbeat CPU 0 instructions: 420000000 cycles: 226003283 heartbeat IPC: 1.954 cumulative IPC: 1.733 (Simulation time: 02 hr 38 min 59 sec)
Heartbeat CPU 0 instructions: 430000001 cycles: 230457200 heartbeat IPC: 2.245 cumulative IPC: 1.744 (Simulation time: 02 hr 42 min 08 sec)
Heartbeat CPU 0 instructions: 440000000 cycles: 235795483 heartbeat IPC: 1.873 cumulative IPC: 1.747 (Simulation time: 02 hr 45 min 41 sec)
Heartbeat CPU 0 instructions: 450000002 cycles: 240441939 heartbeat IPC: 2.152 cumulative IPC: 1.755 (Simulation time: 02 hr 48 min 57 sec)
Heartbeat CPU 0 instructions: 460000000 cycles: 245218930 heartbeat IPC: 2.093 cumulative IPC: 1.762 (Simulation time: 02 hr 52 min 10 sec)
Heartbeat CPU 0 instructions: 470000000 cycles: 250185098 heartbeat IPC: 2.014 cumulative IPC: 1.767 (Simulation time: 02 hr 55 min 28 sec)
Heartbeat CPU 0 instructions: 480000003 cycles: 254971254 heartbeat IPC: 2.089 cumulative IPC: 1.774 (Simulation time: 02 hr 58 min 41 sec)
Heartbeat CPU 0 instructions: 490000000 cycles: 259563499 heartbeat IPC: 2.178 cumulative IPC: 1.781 (Simulation time: 03 hr 01 min 56 sec)
Heartbeat CPU 0 instructions: 500000000 cycles: 264578018 heartbeat IPC: 1.994 cumulative IPC: 1.785 (Simulation time: 03 hr 05 min 14 sec)
Heartbeat CPU 0 instructions: 510000003 cycles: 270207716 heartbeat IPC: 1.776 cumulative IPC: 1.785 (Simulation time: 03 hr 08 min 52 sec)
Heartbeat CPU 0 instructions: 520000001 cycles: 274875214 heartbeat IPC: 2.142 cumulative IPC: 1.792 (Simulation time: 03 hr 12 min 11 sec)
Heartbeat CPU 0 instructions: 530000002 cycles: 280007730 heartbeat IPC: 1.948 cumulative IPC: 1.795 (Simulation time: 03 hr 15 min 36 sec)
Heartbeat CPU 0 instructions: 540000000 cycles: 285102485 heartbeat IPC: 1.963 cumulative IPC: 1.798 (Simulation time: 03 hr 19 min 07 sec)
Heartbeat CPU 0 instructions: 550000001 cycles: 289897903 heartbeat IPC: 2.085 cumulative IPC: 1.803 (Simulation time: 03 hr 22 min 32 sec)
Heartbeat CPU 0 instructions: 560000000 cycles: 295117338 heartbeat IPC: 1.916 cumulative IPC: 1.805 (Simulation time: 03 hr 26 min 00 sec)
Heartbeat CPU 0 instructions: 570000004 cycles: 301958422 heartbeat IPC: 1.462 cumulative IPC: 1.797 (Simulation time: 03 hr 29 min 58 sec)
Heartbeat CPU 0 instructions: 580000003 cycles: 312180652 heartbeat IPC: 0.9783 cumulative IPC: 1.769 (Simulation time: 03 hr 35 min 21 sec)
Heartbeat CPU 0 instructions: 590000002 cycles: 324437651 heartbeat IPC: 0.8159 cumulative IPC: 1.731 (Simulation time: 03 hr 41 min 24 sec)
Heartbeat CPU 0 instructions: 600000000 cycles: 329000580 heartbeat IPC: 2.192 cumulative IPC: 1.738 (Simulation time: 03 hr 44 min 07 sec)
Heartbeat CPU 0 instructions: 610000002 cycles: 333471418 heartbeat IPC: 2.237 cumulative IPC: 1.745 (Simulation time: 03 hr 46 min 30 sec)
Heartbeat CPU 0 instructions: 620000000 cycles: 338268661 heartbeat IPC: 2.085 cumulative IPC: 1.75 (Simulation time: 03 hr 49 min 01 sec)
Heartbeat CPU 0 instructions: 630000002 cycles: 343336147 heartbeat IPC: 1.973 cumulative IPC: 1.753 (Simulation time: 03 hr 51 min 29 sec)
Heartbeat CPU 0 instructions: 640000001 cycles: 348180507 heartbeat IPC: 2.064 cumulative IPC: 1.758 (Simulation time: 03 hr 53 min 23 sec)
Heartbeat CPU 0 instructions: 650000000 cycles: 352729493 heartbeat IPC: 2.198 cumulative IPC: 1.764 (Simulation time: 03 hr 54 min 50 sec)
Simulation finished CPU 0 instructions: 600000001 cycles: 340192407 cumulative IPC: 1.764 (Simulation time: 03 hr 54 min 50 sec)
Simulation complete CPU 0 instructions: 600000001 cycles: 340192407 cumulative IPC: 1.764 (Simulation time: 03 hr 54 min 50 sec)

ChampSim completed all CPUs

=== Simulation ===
CPU 0 runs traces/400.perlbench-41B.champsimtrace.xz
Region of Interest Statistics

CPU 0 cumulative IPC: 1.764 instructions: 600000001 cycles: 340192407
CPU 0 Branch Prediction Accuracy: 93.95% MPKI: 12.5 Average ROB Occupancy at Mispredict: 29.46
Branch type MPKI
BRANCH_DIRECT_JUMP: 0.0123
BRANCH_INDIRECT: 0.323
BRANCH_CONDITIONAL: 12
BRANCH_DIRECT_CALL: 0.0043
BRANCH_INDIRECT_CALL: 0.2
BRANCH_RETURN: 0.00828

LLC TOTAL        ACCESS:     465833 HIT:     233338 MISS:     232495
LLC LOAD         ACCESS:     309463 HIT:     114864 MISS:     194599
LLC RFO          ACCESS:      25127 HIT:      18490 MISS:       6637
LLC PREFETCH     ACCESS:      50751 HIT:      40341 MISS:      10410
LLC WRITE        ACCESS:      64795 HIT:      56139 MISS:       8656
LLC TRANSLATION  ACCESS:      15697 HIT:       3504 MISS:      12193
LLC PREFETCH REQUESTED:      50751 ISSUED:      50751 USEFUL:       3753 USELESS:       5728
LLC AVERAGE MISS LATENCY: 487 cycles
cpu0_DTLB TOTAL        ACCESS:  153685219 HIT:  153008247 MISS:     676972
cpu0_DTLB LOAD         ACCESS:  153685219 HIT:  153008247 MISS:     676972
cpu0_DTLB RFO          ACCESS:          0 HIT:          0 MISS:          0
cpu0_DTLB PREFETCH     ACCESS:          0 HIT:          0 MISS:          0
cpu0_DTLB WRITE        ACCESS:          0 HIT:          0 MISS:          0
cpu0_DTLB TRANSLATION  ACCESS:          0 HIT:          0 MISS:          0
cpu0_DTLB PREFETCH REQUESTED:          0 ISSUED:          0 USEFUL:          0 USELESS:          0
cpu0_DTLB AVERAGE MISS LATENCY: 16.34 cycles
cpu0_ITLB TOTAL        ACCESS:    4840065 HIT:    4782013 MISS:      58052
cpu0_ITLB LOAD         ACCESS:    4840065 HIT:    4782013 MISS:      58052
cpu0_ITLB RFO          ACCESS:          0 HIT:          0 MISS:          0
cpu0_ITLB PREFETCH     ACCESS:          0 HIT:          0 MISS:          0
cpu0_ITLB WRITE        ACCESS:          0 HIT:          0 MISS:          0
cpu0_ITLB TRANSLATION  ACCESS:          0 HIT:          0 MISS:          0
cpu0_ITLB PREFETCH REQUESTED:          0 ISSUED:          0 USEFUL:          0 USELESS:          0
cpu0_ITLB AVERAGE MISS LATENCY: 7.15 cycles
cpu0_L1D TOTAL        ACCESS:  200312490 HIT:  199008403 MISS:    1304087
cpu0_L1D LOAD         ACCESS:  117068563 HIT:  116061559 MISS:    1007004
cpu0_L1D RFO          ACCESS:          0 HIT:          0 MISS:          0
cpu0_L1D PREFETCH     ACCESS:          0 HIT:          0 MISS:          0
cpu0_L1D WRITE        ACCESS:   83219463 HIT:   82945266 MISS:     274197
cpu0_L1D TRANSLATION  ACCESS:      24464 HIT:       1578 MISS:      22886
cpu0_L1D PREFETCH REQUESTED:          0 ISSUED:          0 USEFUL:          0 USELESS:          0
cpu0_L1D AVERAGE MISS LATENCY: 87.82 cycles
cpu0_L1I TOTAL        ACCESS:    5582078 HIT:    4820015 MISS:     762063
cpu0_L1I LOAD         ACCESS:    5582078 HIT:    4820015 MISS:     762063
cpu0_L1I RFO          ACCESS:          0 HIT:          0 MISS:          0
cpu0_L1I PREFETCH     ACCESS:          0 HIT:          0 MISS:          0
cpu0_L1I WRITE        ACCESS:          0 HIT:          0 MISS:          0
cpu0_L1I TRANSLATION  ACCESS:          0 HIT:          0 MISS:          0
cpu0_L1I PREFETCH REQUESTED:          0 ISSUED:          0 USEFUL:          0 USELESS:          0
cpu0_L1I AVERAGE MISS LATENCY: 11.27 cycles
cpu0_L2C TOTAL        ACCESS:    1382650 HIT:    1031490 MISS:     351160
cpu0_L2C LOAD         ACCESS:    1125668 HIT:     816205 MISS:     309463
cpu0_L2C RFO          ACCESS:      63900 HIT:      38773 MISS:      25127
cpu0_L2C PREFETCH     ACCESS:          0 HIT:          0 MISS:          0
cpu0_L2C WRITE        ACCESS:     170277 HIT:     169404 MISS:        873
cpu0_L2C TRANSLATION  ACCESS:      22805 HIT:       7108 MISS:      15697
cpu0_L2C PREFETCH REQUESTED:          0 ISSUED:          0 USEFUL:          0 USELESS:          0
cpu0_L2C AVERAGE MISS LATENCY: 325.1 cycles
cpu0_STLB TOTAL        ACCESS:     505100 HIT:     482311 MISS:      22789
cpu0_STLB LOAD         ACCESS:     505100 HIT:     482311 MISS:      22789
cpu0_STLB RFO          ACCESS:          0 HIT:          0 MISS:          0
cpu0_STLB PREFETCH     ACCESS:          0 HIT:          0 MISS:          0
cpu0_STLB WRITE        ACCESS:          0 HIT:          0 MISS:          0
cpu0_STLB TRANSLATION  ACCESS:          0 HIT:          0 MISS:          0
cpu0_STLB PREFETCH REQUESTED:          0 ISSUED:          0 USEFUL:          0 USELESS:          0
cpu0_STLB AVERAGE MISS LATENCY: 362.9 cycles

DRAM Statistics

Channel 0 RQ ROW_BUFFER_HIT:      52501
  ROW_BUFFER_MISS:     170136
 AVG DBUS CONGESTED CYCLE: 3.725
WQ ROW_BUFFER_HIT: Channel 0 
  ROW_BUFFER_MISS:       4475
  FULL:       6053
