WARNING: physical memory size is smaller than virtual memory size.

*** ChampSim Multicore Out-of-Order Simulator ***
Warmup Instructions: 50000000
Simulation Instructions: 600000000
Number of CPUs: 1
Page size: 4096

Off-chip DRAM Size: 4 GiB Channels: 1 Width: 64-bit Data Race: 3200 MT/s
Heartbeat CPU 0 instructions: 10000000 cycles: 2565785 heartbeat IPC: 3.897 cumulative IPC: 3.897 (Simulation time: 00 hr 00 min 31 sec)
Heartbeat CPU 0 instructions: 20000000 cycles: 5131274 heartbeat IPC: 3.898 cumulative IPC: 3.898 (Simulation time: 00 hr 01 min 04 sec)
Heartbeat CPU 0 instructions: 30000000 cycles: 7631274 heartbeat IPC: 4 cumulative IPC: 3.931 (Simulation time: 00 hr 01 min 33 sec)
Heartbeat CPU 0 instructions: 40000000 cycles: 10131274 heartbeat IPC: 4 cumulative IPC: 3.948 (Simulation time: 00 hr 02 min 07 sec)
Heartbeat CPU 0 instructions: 50000000 cycles: 12631274 heartbeat IPC: 4 cumulative IPC: 3.958 (Simulation time: 00 hr 02 min 44 sec)
Warmup finished CPU 0 instructions: 50000000 cycles: 12631275 cumulative IPC: 3.958 (Simulation time: 00 hr 02 min 44 sec)
Warmup complete CPU 0 instructions: 50000000 cycles: 12631275 cumulative IPC: 3.958 (Simulation time: 00 hr 02 min 44 sec)
Heartbeat CPU 0 instructions: 60000000 cycles: 16408407 heartbeat IPC: 2.648 cumulative IPC: 2.648 (Simulation time: 00 hr 03 min 37 sec)
Heartbeat CPU 0 instructions: 70000000 cycles: 20186549 heartbeat IPC: 2.647 cumulative IPC: 2.647 (Simulation time: 00 hr 04 min 41 sec)
Heartbeat CPU 0 instructions: 80000004 cycles: 23962683 heartbeat IPC: 2.648 cumulative IPC: 2.648 (Simulation time: 00 hr 05 min 46 sec)
Heartbeat CPU 0 instructions: 90000000 cycles: 27741364 heartbeat IPC: 2.646 cumulative IPC: 2.647 (Simulation time: 00 hr 06 min 52 sec)
Heartbeat CPU 0 instructions: 100000003 cycles: 31520115 heartbeat IPC: 2.646 cumulative IPC: 2.647 (Simulation time: 00 hr 07 min 58 sec)
Heartbeat CPU 0 instructions: 110000001 cycles: 35297461 heartbeat IPC: 2.647 cumulative IPC: 2.647 (Simulation time: 00 hr 09 min 05 sec)
Heartbeat CPU 0 instructions: 120000001 cycles: 39072822 heartbeat IPC: 2.649 cumulative IPC: 2.647 (Simulation time: 00 hr 10 min 16 sec)
Heartbeat CPU 0 instructions: 130000001 cycles: 42846915 heartbeat IPC: 2.65 cumulative IPC: 2.648 (Simulation time: 00 hr 11 min 23 sec)
Heartbeat CPU 0 instructions: 140000001 cycles: 46623966 heartbeat IPC: 2.648 cumulative IPC: 2.648 (Simulation time: 00 hr 12 min 30 sec)
Heartbeat CPU 0 instructions: 150000000 cycles: 50400439 heartbeat IPC: 2.648 cumulative IPC: 2.648 (Simulation time: 00 hr 13 min 35 sec)
Heartbeat CPU 0 instructions: 160000002 cycles: 54178785 heartbeat IPC: 2.647 cumulative IPC: 2.648 (Simulation time: 00 hr 14 min 42 sec)
Heartbeat CPU 0 instructions: 170000000 cycles: 57955645 heartbeat IPC: 2.648 cumulative IPC: 2.648 (Simulation time: 00 hr 15 min 49 sec)
Heartbeat CPU 0 instructions: 180000004 cycles: 61730591 heartbeat IPC: 2.649 cumulative IPC: 2.648 (Simulation time: 00 hr 16 min 56 sec)
Heartbeat CPU 0 instructions: 190000001 cycles: 65506668 heartbeat IPC: 2.648 cumulative IPC: 2.648 (Simulation time: 00 hr 18 min 03 sec)
Heartbeat CPU 0 instructions: 200000001 cycles: 69281672 heartbeat IPC: 2.649 cumulative IPC: 2.648 (Simulation time: 00 hr 19 min 09 sec)
Heartbeat CPU 0 instructions: 210000004 cycles: 73057808 heartbeat IPC: 2.648 cumulative IPC: 2.648 (Simulation time: 00 hr 20 min 16 sec)
Heartbeat CPU 0 instructions: 220000003 cycles: 76833732 heartbeat IPC: 2.648 cumulative IPC: 2.648 (Simulation time: 00 hr 21 min 23 sec)
Heartbeat CPU 0 instructions: 230000001 cycles: 80214311 heartbeat IPC: 2.958 cumulative IPC: 2.663 (Simulation time: 00 hr 22 min 36 sec)
Heartbeat CPU 0 instructions: 240000002 cycles: 83012497 heartbeat IPC: 3.574 cumulative IPC: 2.7 (Simulation time: 00 hr 23 min 43 sec)
Heartbeat CPU 0 instructions: 250000003 cycles: 86793298 heartbeat IPC: 2.645 cumulative IPC: 2.697 (Simulation time: 00 hr 24 min 46 sec)
Heartbeat CPU 0 instructions: 260000002 cycles: 90569497 heartbeat IPC: 2.648 cumulative IPC: 2.694 (Simulation time: 00 hr 25 min 39 sec)
Heartbeat CPU 0 instructions: 270000004 cycles: 94345660 heartbeat IPC: 2.648 cumulative IPC: 2.692 (Simulation time: 00 hr 26 min 28 sec)
Heartbeat CPU 0 instructions: 280000000 cycles: 98122721 heartbeat IPC: 2.648 cumulative IPC: 2.69 (Simulation time: 00 hr 27 min 13 sec)
Heartbeat CPU 0 instructions: 290000002 cycles: 101898754 heartbeat IPC: 2.648 cumulative IPC: 2.689 (Simulation time: 00 hr 27 min 55 sec)
Heartbeat CPU 0 instructions: 300000004 cycles: 105673368 heartbeat IPC: 2.649 cumulative IPC: 2.687 (Simulation time: 00 hr 28 min 37 sec)
Heartbeat CPU 0 instructions: 310000002 cycles: 109449743 heartbeat IPC: 2.648 cumulative IPC: 2.685 (Simulation time: 00 hr 29 min 17 sec)
Heartbeat CPU 0 instructions: 320000004 cycles: 113226969 heartbeat IPC: 2.647 cumulative IPC: 2.684 (Simulation time: 00 hr 29 min 57 sec)
Heartbeat CPU 0 instructions: 330000003 cycles: 117004091 heartbeat IPC: 2.648 cumulative IPC: 2.683 (Simulation time: 00 hr 30 min 36 sec)
Heartbeat CPU 0 instructions: 340000000 cycles: 120780800 heartbeat IPC: 2.648 cumulative IPC: 2.681 (Simulation time: 00 hr 31 min 15 sec)
Heartbeat CPU 0 instructions: 350000002 cycles: 124557890 heartbeat IPC: 2.648 cumulative IPC: 2.68 (Simulation time: 00 hr 31 min 53 sec)
Heartbeat CPU 0 instructions: 360000003 cycles: 128334503 heartbeat IPC: 2.648 cumulative IPC: 2.679 (Simulation time: 00 hr 32 min 33 sec)
Heartbeat CPU 0 instructions: 370000004 cycles: 132109782 heartbeat IPC: 2.649 cumulative IPC: 2.678 (Simulation time: 00 hr 33 min 12 sec)
Heartbeat CPU 0 instructions: 380000002 cycles: 135884822 heartbeat IPC: 2.649 cumulative IPC: 2.677 (Simulation time: 00 hr 33 min 52 sec)
Heartbeat CPU 0 instructions: 390000000 cycles: 139657969 heartbeat IPC: 2.65 cumulative IPC: 2.677 (Simulation time: 00 hr 34 min 31 sec)
Heartbeat CPU 0 instructions: 400000001 cycles: 143434068 heartbeat IPC: 2.648 cumulative IPC: 2.676 (Simulation time: 00 hr 35 min 10 sec)
Heartbeat CPU 0 instructions: 410000003 cycles: 147210341 heartbeat IPC: 2.648 cumulative IPC: 2.675 (Simulation time: 00 hr 35 min 48 sec)
Heartbeat CPU 0 instructions: 420000000 cycles: 150988229 heartbeat IPC: 2.647 cumulative IPC: 2.674 (Simulation time: 00 hr 36 min 25 sec)
Heartbeat CPU 0 instructions: 430000001 cycles: 154765972 heartbeat IPC: 2.647 cumulative IPC: 2.674 (Simulation time: 00 hr 37 min 01 sec)
Heartbeat CPU 0 instructions: 440000002 cycles: 158541123 heartbeat IPC: 2.649 cumulative IPC: 2.673 (Simulation time: 00 hr 37 min 40 sec)
Heartbeat CPU 0 instructions: 450000001 cycles: 161389985 heartbeat IPC: 3.51 cumulative IPC: 2.689 (Simulation time: 00 hr 38 min 16 sec)
Heartbeat CPU 0 instructions: 460000002 cycles: 164185616 heartbeat IPC: 3.577 cumulative IPC: 2.705 (Simulation time: 00 hr 38 min 52 sec)
Heartbeat CPU 0 instructions: 470000004 cycles: 167960108 heartbeat IPC: 2.649 cumulative IPC: 2.704 (Simulation time: 00 hr 39 min 30 sec)
Heartbeat CPU 0 instructions: 480000000 cycles: 171737256 heartbeat IPC: 2.647 cumulative IPC: 2.703 (Simulation time: 00 hr 40 min 11 sec)
Heartbeat CPU 0 instructions: 490000000 cycles: 175513462 heartbeat IPC: 2.648 cumulative IPC: 2.701 (Simulation time: 00 hr 40 min 51 sec)
Heartbeat CPU 0 instructions: 500000002 cycles: 179289046 heartbeat IPC: 2.649 cumulative IPC: 2.7 (Simulation time: 00 hr 41 min 33 sec)
Heartbeat CPU 0 instructions: 510000001 cycles: 183065508 heartbeat IPC: 2.648 cumulative IPC: 2.699 (Simulation time: 00 hr 42 min 17 sec)
Heartbeat CPU 0 instructions: 520000002 cycles: 186842023 heartbeat IPC: 2.648 cumulative IPC: 2.698 (Simulation time: 00 hr 43 min 08 sec)
Heartbeat CPU 0 instructions: 530000002 cycles: 190617409 heartbeat IPC: 2.649 cumulative IPC: 2.697 (Simulation time: 00 hr 44 min 01 sec)
Heartbeat CPU 0 instructions: 540000000 cycles: 194396064 heartbeat IPC: 2.646 cumulative IPC: 2.696 (Simulation time: 00 hr 44 min 53 sec)
Heartbeat CPU 0 instructions: 550000000 cycles: 198171443 heartbeat IPC: 2.649 cumulative IPC: 2.695 (Simulation time: 00 hr 45 min 54 sec)
Heartbeat CPU 0 instructions: 560000001 cycles: 201947554 heartbeat IPC: 2.648 cumulative IPC: 2.694 (Simulation time: 00 hr 46 min 59 sec)
Heartbeat CPU 0 instructions: 570000001 cycles: 205723409 heartbeat IPC: 2.648 cumulative IPC: 2.693 (Simulation time: 00 hr 48 min 02 sec)
Heartbeat CPU 0 instructions: 580000002 cycles: 209503643 heartbeat IPC: 2.645 cumulative IPC: 2.692 (Simulation time: 00 hr 49 min 01 sec)
Heartbeat CPU 0 instructions: 590000003 cycles: 213279658 heartbeat IPC: 2.648 cumulative IPC: 2.691 (Simulation time: 00 hr 49 min 59 sec)
*** Reached end of trace: (0, "traces/l1l2cache.champsimtrace")
Heartbeat CPU 0 instructions: 600000001 cycles: 217055964 heartbeat IPC: 2.648 cumulative IPC: 2.69 (Simulation time: 00 hr 51 min 03 sec)
Heartbeat CPU 0 instructions: 610000001 cycles: 223372909 heartbeat IPC: 1.583 cumulative IPC: 2.657 (Simulation time: 00 hr 52 min 42 sec)
Heartbeat CPU 0 instructions: 620000004 cycles: 226183962 heartbeat IPC: 3.557 cumulative IPC: 2.669 (Simulation time: 00 hr 53 min 43 sec)
Heartbeat CPU 0 instructions: 630000004 cycles: 229957596 heartbeat IPC: 2.65 cumulative IPC: 2.669 (Simulation time: 00 hr 54 min 42 sec)
Heartbeat CPU 0 instructions: 640000004 cycles: 233733060 heartbeat IPC: 2.649 cumulative IPC: 2.668 (Simulation time: 00 hr 55 min 37 sec)
Heartbeat CPU 0 instructions: 650000004 cycles: 237511495 heartbeat IPC: 2.647 cumulative IPC: 2.668 (Simulation time: 00 hr 56 min 31 sec)
Simulation finished CPU 0 instructions: 600000004 cycles: 224880221 cumulative IPC: 2.668 (Simulation time: 00 hr 56 min 31 sec)
Simulation complete CPU 0 instructions: 600000004 cycles: 224880221 cumulative IPC: 2.668 (Simulation time: 00 hr 56 min 31 sec)

ChampSim completed all CPUs

=== Simulation ===
CPU 0 runs traces/l1l2cache.champsimtrace
Region of Interest Statistics

CPU 0 cumulative IPC: 2.668 instructions: 600000004 cycles: 224880221
CPU 0 Branch Prediction Accuracy: 89.66% MPKI: 8.781 Average ROB Occupancy at Mispredict: 55.04
Branch type MPKI
BRANCH_DIRECT_JUMP: 9.5e-05
BRANCH_INDIRECT: 0.000282
BRANCH_CONDITIONAL: 8.78
BRANCH_DIRECT_CALL: 3.33e-06
BRANCH_INDIRECT_CALL: 4.83e-05
BRANCH_RETURN: 3.33e-05

LLC TOTAL        ACCESS:     319114 HIT:     277334 MISS:      41780
LLC LOAD         ACCESS:      59445 HIT:      53624 MISS:       5821
LLC RFO          ACCESS:      99913 HIT:      72947 MISS:      26966
LLC PREFETCH     ACCESS:      59445 HIT:      51460 MISS:       7985
LLC WRITE        ACCESS:     100306 HIT:      99302 MISS:       1004
LLC TRANSLATION  ACCESS:          5 HIT:          1 MISS:          4
LLC PREFETCH REQUESTED:      59445 ISSUED:      59445 USEFUL:       5273 USELESS:       1720
LLC AVERAGE MISS LATENCY: 675.7 cycles
cpu0_DTLB TOTAL        ACCESS:   83107660 HIT:   83096901 MISS:      10759
cpu0_DTLB LOAD         ACCESS:   83107660 HIT:   83096901 MISS:      10759
cpu0_DTLB RFO          ACCESS:          0 HIT:          0 MISS:          0
cpu0_DTLB PREFETCH     ACCESS:          0 HIT:          0 MISS:          0
cpu0_DTLB WRITE        ACCESS:          0 HIT:          0 MISS:          0
cpu0_DTLB TRANSLATION  ACCESS:          0 HIT:          0 MISS:          0
cpu0_DTLB PREFETCH REQUESTED:          0 ISSUED:          0 USEFUL:          0 USELESS:          0
cpu0_DTLB AVERAGE MISS LATENCY: 5.899 cycles
cpu0_ITLB TOTAL        ACCESS:       5539 HIT:       5308 MISS:        231
cpu0_ITLB LOAD         ACCESS:       5539 HIT:       5308 MISS:        231
cpu0_ITLB RFO          ACCESS:          0 HIT:          0 MISS:          0
cpu0_ITLB PREFETCH     ACCESS:          0 HIT:          0 MISS:          0
cpu0_ITLB WRITE        ACCESS:          0 HIT:          0 MISS:          0
cpu0_ITLB TRANSLATION  ACCESS:          0 HIT:          0 MISS:          0
cpu0_ITLB PREFETCH REQUESTED:          0 ISSUED:          0 USEFUL:          0 USELESS:          0
cpu0_ITLB AVERAGE MISS LATENCY: 6.004 cycles
cpu0_L1D TOTAL        ACCESS:  105954124 HIT:  104562370 MISS:    1391754
cpu0_L1D LOAD         ACCESS:   46626889 HIT:   46281037 MISS:     345852
cpu0_L1D RFO          ACCESS:          0 HIT:          0 MISS:          0
cpu0_L1D PREFETCH     ACCESS:          0 HIT:          0 MISS:          0
cpu0_L1D WRITE        ACCESS:   59326977 HIT:   58281080 MISS:    1045897
cpu0_L1D TRANSLATION  ACCESS:        258 HIT:        253 MISS:          5
cpu0_L1D PREFETCH REQUESTED:          0 ISSUED:          0 USEFUL:          0 USELESS:          0
cpu0_L1D AVERAGE MISS LATENCY: 16.44 cycles
cpu0_L1I TOTAL        ACCESS:       6294 HIT:       3920 MISS:       2374
cpu0_L1I LOAD         ACCESS:       6294 HIT:       3920 MISS:       2374
cpu0_L1I RFO          ACCESS:          0 HIT:          0 MISS:          0
cpu0_L1I PREFETCH     ACCESS:          0 HIT:          0 MISS:          0
cpu0_L1I WRITE        ACCESS:          0 HIT:          0 MISS:          0
cpu0_L1I TRANSLATION  ACCESS:          0 HIT:          0 MISS:          0
cpu0_L1I PREFETCH REQUESTED:          0 ISSUED:          0 USEFUL:          0 USELESS:          0
cpu0_L1I AVERAGE MISS LATENCY: 419 cycles
cpu0_L2C TOTAL        ACCESS:     265740 HIT:     106353 MISS:     159387
cpu0_L2C LOAD         ACCESS:      63735 HIT:       4290 MISS:      59445
cpu0_L2C RFO          ACCESS:     100734 HIT:        821 MISS:      99913
cpu0_L2C PREFETCH     ACCESS:          0 HIT:          0 MISS:          0
cpu0_L2C WRITE        ACCESS:     101266 HIT:     101242 MISS:         24
cpu0_L2C TRANSLATION  ACCESS:          5 HIT:          0 MISS:          5
cpu0_L2C PREFETCH REQUESTED:          0 ISSUED:          0 USEFUL:          0 USELESS:          0
cpu0_L2C AVERAGE MISS LATENCY: 169.8 cycles
cpu0_STLB TOTAL        ACCESS:       3914 HIT:       3657 MISS:        257
cpu0_STLB LOAD         ACCESS:       3914 HIT:       3657 MISS:        257
cpu0_STLB RFO          ACCESS:          0 HIT:          0 MISS:          0
cpu0_STLB PREFETCH     ACCESS:          0 HIT:          0 MISS:          0
cpu0_STLB WRITE        ACCESS:          0 HIT:          0 MISS:          0
cpu0_STLB TRANSLATION  ACCESS:          0 HIT:          0 MISS:          0
cpu0_STLB PREFETCH REQUESTED:          0 ISSUED:          0 USEFUL:          0 USELESS:          0
cpu0_STLB AVERAGE MISS LATENCY: 216.6 cycles

DRAM Statistics

Channel 0 RQ ROW_BUFFER_HIT:      19690
  ROW_BUFFER_MISS:      17843
 AVG DBUS CONGESTED CYCLE: 3.968
WQ ROW_BUFFER_HIT: Channel 0 
  ROW_BUFFER_MISS:       1664
  FULL:      14959
Final OPTGen Hits: 2725
Final OPTGen Access: 3472
Final OPTGEN Hit Rate: 78.4851
