WARNING: physical memory size is smaller than virtual memory size.

*** ChampSim Multicore Out-of-Order Simulator ***
Warmup Instructions: 50000000
Simulation Instructions: 600000000
Number of CPUs: 1
Page size: 4096

Off-chip DRAM Size: 4 GiB Channels: 1 Width: 64-bit Data Race: 3200 MT/s
Heartbeat CPU 0 instructions: 10000004 cycles: 2777663 heartbeat IPC: 3.6 cumulative IPC: 3.6 (Simulation time: 00 hr 01 min 00 sec)
Heartbeat CPU 0 instructions: 20000001 cycles: 5634805 heartbeat IPC: 3.5 cumulative IPC: 3.549 (Simulation time: 00 hr 02 min 00 sec)
Heartbeat CPU 0 instructions: 30000000 cycles: 8491948 heartbeat IPC: 3.5 cumulative IPC: 3.533 (Simulation time: 00 hr 02 min 57 sec)
Heartbeat CPU 0 instructions: 40000002 cycles: 11120600 heartbeat IPC: 3.804 cumulative IPC: 3.597 (Simulation time: 00 hr 03 min 51 sec)
Heartbeat CPU 0 instructions: 50000002 cycles: 13620600 heartbeat IPC: 4 cumulative IPC: 3.671 (Simulation time: 00 hr 04 min 44 sec)
Warmup finished CPU 0 instructions: 50000002 cycles: 13620601 cumulative IPC: 3.671 (Simulation time: 00 hr 04 min 44 sec)
Warmup complete CPU 0 instructions: 50000002 cycles: 13620601 cumulative IPC: 3.671 (Simulation time: 00 hr 04 min 44 sec)
Heartbeat CPU 0 instructions: 60000002 cycles: 16295256 heartbeat IPC: 3.739 cumulative IPC: 3.739 (Simulation time: 00 hr 05 min 40 sec)
Heartbeat CPU 0 instructions: 70000001 cycles: 18969955 heartbeat IPC: 3.739 cumulative IPC: 3.739 (Simulation time: 00 hr 06 min 36 sec)
Heartbeat CPU 0 instructions: 80000000 cycles: 21644609 heartbeat IPC: 3.739 cumulative IPC: 3.739 (Simulation time: 00 hr 07 min 32 sec)
Heartbeat CPU 0 instructions: 90000003 cycles: 24320181 heartbeat IPC: 3.738 cumulative IPC: 3.738 (Simulation time: 00 hr 08 min 28 sec)
Heartbeat CPU 0 instructions: 100000003 cycles: 26996438 heartbeat IPC: 3.737 cumulative IPC: 3.738 (Simulation time: 00 hr 09 min 25 sec)
Heartbeat CPU 0 instructions: 110000004 cycles: 29671139 heartbeat IPC: 3.739 cumulative IPC: 3.738 (Simulation time: 00 hr 10 min 19 sec)
Heartbeat CPU 0 instructions: 120000003 cycles: 32345822 heartbeat IPC: 3.739 cumulative IPC: 3.738 (Simulation time: 00 hr 11 min 14 sec)
Heartbeat CPU 0 instructions: 130000002 cycles: 35020492 heartbeat IPC: 3.739 cumulative IPC: 3.738 (Simulation time: 00 hr 12 min 13 sec)
Heartbeat CPU 0 instructions: 140000002 cycles: 37696229 heartbeat IPC: 3.737 cumulative IPC: 3.738 (Simulation time: 00 hr 13 min 14 sec)
Heartbeat CPU 0 instructions: 150000000 cycles: 40370884 heartbeat IPC: 3.739 cumulative IPC: 3.738 (Simulation time: 00 hr 14 min 17 sec)
Heartbeat CPU 0 instructions: 160000001 cycles: 43045585 heartbeat IPC: 3.739 cumulative IPC: 3.738 (Simulation time: 00 hr 15 min 22 sec)
Heartbeat CPU 0 instructions: 170000004 cycles: 45720239 heartbeat IPC: 3.739 cumulative IPC: 3.738 (Simulation time: 00 hr 16 min 23 sec)
Heartbeat CPU 0 instructions: 180000000 cycles: 48395319 heartbeat IPC: 3.738 cumulative IPC: 3.738 (Simulation time: 00 hr 17 min 26 sec)
Heartbeat CPU 0 instructions: 190000004 cycles: 51070437 heartbeat IPC: 3.738 cumulative IPC: 3.738 (Simulation time: 00 hr 18 min 27 sec)
Heartbeat CPU 0 instructions: 200000002 cycles: 53745094 heartbeat IPC: 3.739 cumulative IPC: 3.738 (Simulation time: 00 hr 19 min 27 sec)
Heartbeat CPU 0 instructions: 210000003 cycles: 56419795 heartbeat IPC: 3.739 cumulative IPC: 3.738 (Simulation time: 00 hr 20 min 27 sec)
Heartbeat CPU 0 instructions: 220000001 cycles: 59094448 heartbeat IPC: 3.739 cumulative IPC: 3.738 (Simulation time: 00 hr 21 min 26 sec)
Heartbeat CPU 0 instructions: 230000002 cycles: 61769521 heartbeat IPC: 3.738 cumulative IPC: 3.738 (Simulation time: 00 hr 22 min 27 sec)
Heartbeat CPU 0 instructions: 240000003 cycles: 64444175 heartbeat IPC: 3.739 cumulative IPC: 3.738 (Simulation time: 00 hr 23 min 25 sec)
Heartbeat CPU 0 instructions: 250000004 cycles: 67118877 heartbeat IPC: 3.739 cumulative IPC: 3.738 (Simulation time: 00 hr 24 min 24 sec)
Heartbeat CPU 0 instructions: 260000000 cycles: 69793573 heartbeat IPC: 3.739 cumulative IPC: 3.738 (Simulation time: 00 hr 25 min 20 sec)
Heartbeat CPU 0 instructions: 270000003 cycles: 72468587 heartbeat IPC: 3.738 cumulative IPC: 3.738 (Simulation time: 00 hr 26 min 18 sec)
Heartbeat CPU 0 instructions: 280000001 cycles: 75143701 heartbeat IPC: 3.738 cumulative IPC: 3.738 (Simulation time: 00 hr 27 min 15 sec)
Heartbeat CPU 0 instructions: 290000000 cycles: 77818355 heartbeat IPC: 3.739 cumulative IPC: 3.738 (Simulation time: 00 hr 28 min 14 sec)
Heartbeat CPU 0 instructions: 300000001 cycles: 80493057 heartbeat IPC: 3.739 cumulative IPC: 3.738 (Simulation time: 00 hr 29 min 11 sec)
Heartbeat CPU 0 instructions: 310000000 cycles: 83167711 heartbeat IPC: 3.739 cumulative IPC: 3.738 (Simulation time: 00 hr 30 min 12 sec)
Heartbeat CPU 0 instructions: 320000000 cycles: 85843322 heartbeat IPC: 3.737 cumulative IPC: 3.738 (Simulation time: 00 hr 31 min 12 sec)
Heartbeat CPU 0 instructions: 330000002 cycles: 88518020 heartbeat IPC: 3.739 cumulative IPC: 3.738 (Simulation time: 00 hr 32 min 11 sec)
Heartbeat CPU 0 instructions: 340000002 cycles: 91192676 heartbeat IPC: 3.739 cumulative IPC: 3.738 (Simulation time: 00 hr 33 min 10 sec)
Heartbeat CPU 0 instructions: 350000003 cycles: 93867378 heartbeat IPC: 3.739 cumulative IPC: 3.738 (Simulation time: 00 hr 34 min 08 sec)
Heartbeat CPU 0 instructions: 360000001 cycles: 96542907 heartbeat IPC: 3.738 cumulative IPC: 3.738 (Simulation time: 00 hr 35 min 11 sec)
Heartbeat CPU 0 instructions: 370000002 cycles: 99217608 heartbeat IPC: 3.739 cumulative IPC: 3.738 (Simulation time: 00 hr 36 min 10 sec)
Heartbeat CPU 0 instructions: 380000001 cycles: 101892275 heartbeat IPC: 3.739 cumulative IPC: 3.738 (Simulation time: 00 hr 37 min 08 sec)
Heartbeat CPU 0 instructions: 390000004 cycles: 104566962 heartbeat IPC: 3.739 cumulative IPC: 3.738 (Simulation time: 00 hr 38 min 10 sec)
Heartbeat CPU 0 instructions: 400000000 cycles: 107241660 heartbeat IPC: 3.739 cumulative IPC: 3.738 (Simulation time: 00 hr 39 min 10 sec)
Heartbeat CPU 0 instructions: 410000003 cycles: 109916944 heartbeat IPC: 3.738 cumulative IPC: 3.738 (Simulation time: 00 hr 40 min 08 sec)
Heartbeat CPU 0 instructions: 420000003 cycles: 118838189 heartbeat IPC: 1.121 cumulative IPC: 3.517 (Simulation time: 00 hr 42 min 17 sec)
Heartbeat CPU 0 instructions: 430000002 cycles: 146698948 heartbeat IPC: 0.3589 cumulative IPC: 2.855 (Simulation time: 00 hr 48 min 04 sec)
Heartbeat CPU 0 instructions: 440000004 cycles: 174501881 heartbeat IPC: 0.3597 cumulative IPC: 2.424 (Simulation time: 00 hr 54 min 00 sec)
Heartbeat CPU 0 instructions: 450000000 cycles: 202354390 heartbeat IPC: 0.359 cumulative IPC: 2.119 (Simulation time: 01 hr 02 min 26 sec)
Heartbeat CPU 0 instructions: 460000002 cycles: 230232746 heartbeat IPC: 0.3587 cumulative IPC: 1.893 (Simulation time: 01 hr 12 min 47 sec)
Heartbeat CPU 0 instructions: 470000003 cycles: 257685609 heartbeat IPC: 0.3643 cumulative IPC: 1.721 (Simulation time: 01 hr 23 min 40 sec)
Heartbeat CPU 0 instructions: 480000004 cycles: 284790317 heartbeat IPC: 0.3689 cumulative IPC: 1.586 (Simulation time: 01 hr 32 min 51 sec)
Heartbeat CPU 0 instructions: 490000000 cycles: 311994693 heartbeat IPC: 0.3676 cumulative IPC: 1.475 (Simulation time: 01 hr 44 min 32 sec)
Heartbeat CPU 0 instructions: 500000000 cycles: 339253080 heartbeat IPC: 0.3669 cumulative IPC: 1.382 (Simulation time: 01 hr 56 min 25 sec)
Heartbeat CPU 0 instructions: 510000002 cycles: 366403527 heartbeat IPC: 0.3683 cumulative IPC: 1.304 (Simulation time: 02 hr 06 min 07 sec)
Heartbeat CPU 0 instructions: 520000003 cycles: 393574230 heartbeat IPC: 0.368 cumulative IPC: 1.237 (Simulation time: 02 hr 16 min 51 sec)
Heartbeat CPU 0 instructions: 530000004 cycles: 420577214 heartbeat IPC: 0.3703 cumulative IPC: 1.179 (Simulation time: 02 hr 23 min 00 sec)
Heartbeat CPU 0 instructions: 540000004 cycles: 447651174 heartbeat IPC: 0.3694 cumulative IPC: 1.129 (Simulation time: 02 hr 28 min 51 sec)
Heartbeat CPU 0 instructions: 550000000 cycles: 474768851 heartbeat IPC: 0.3688 cumulative IPC: 1.084 (Simulation time: 02 hr 34 min 46 sec)
Heartbeat CPU 0 instructions: 560000002 cycles: 501790801 heartbeat IPC: 0.3701 cumulative IPC: 1.045 (Simulation time: 02 hr 41 min 00 sec)
Heartbeat CPU 0 instructions: 570000002 cycles: 528951669 heartbeat IPC: 0.3682 cumulative IPC: 1.009 (Simulation time: 02 hr 47 min 11 sec)
Heartbeat CPU 0 instructions: 580000003 cycles: 556069688 heartbeat IPC: 0.3688 cumulative IPC: 0.9771 (Simulation time: 02 hr 53 min 04 sec)
Heartbeat CPU 0 instructions: 590000000 cycles: 583204779 heartbeat IPC: 0.3685 cumulative IPC: 0.9481 (Simulation time: 02 hr 59 min 59 sec)
*** Reached end of trace: (0, "traces/l1l2l3cache.champsimtrace")
Heartbeat CPU 0 instructions: 600000000 cycles: 610334949 heartbeat IPC: 0.3686 cumulative IPC: 0.9217 (Simulation time: 03 hr 06 min 01 sec)
Heartbeat CPU 0 instructions: 610000001 cycles: 621351510 heartbeat IPC: 0.9077 cumulative IPC: 0.9215 (Simulation time: 03 hr 08 min 44 sec)
Heartbeat CPU 0 instructions: 620000001 cycles: 635957987 heartbeat IPC: 0.6846 cumulative IPC: 0.9159 (Simulation time: 03 hr 12 min 06 sec)
Heartbeat CPU 0 instructions: 630000003 cycles: 650544291 heartbeat IPC: 0.6856 cumulative IPC: 0.9106 (Simulation time: 03 hr 15 min 27 sec)
Heartbeat CPU 0 instructions: 640000000 cycles: 657494083 heartbeat IPC: 1.439 cumulative IPC: 0.9163 (Simulation time: 03 hr 18 min 01 sec)
Heartbeat CPU 0 instructions: 650000003 cycles: 660169141 heartbeat IPC: 3.738 cumulative IPC: 0.928 (Simulation time: 03 hr 19 min 51 sec)
Simulation finished CPU 0 instructions: 600000001 cycles: 646548541 cumulative IPC: 0.928 (Simulation time: 03 hr 19 min 51 sec)
Simulation complete CPU 0 instructions: 600000001 cycles: 646548541 cumulative IPC: 0.928 (Simulation time: 03 hr 19 min 51 sec)

ChampSim completed all CPUs

=== Simulation ===
CPU 0 runs traces/l1l2l3cache.champsimtrace
Region of Interest Statistics

CPU 0 cumulative IPC: 0.928 instructions: 600000001 cycles: 646548541
CPU 0 Branch Prediction Accuracy: 99.5% MPKI: 1.069 Average ROB Occupancy at Mispredict: 149.8
Branch type MPKI
BRANCH_DIRECT_JUMP: 8.5e-05
BRANCH_INDIRECT: 0.000237
BRANCH_CONDITIONAL: 1.07
BRANCH_DIRECT_CALL: 5e-06
BRANCH_INDIRECT_CALL: 4.67e-05
BRANCH_RETURN: 3.67e-05

LLC TOTAL        ACCESS:    5043919 HIT:     504936 MISS:    4538983
LLC LOAD         ACCESS:    1954449 HIT:     207024 MISS:    1747425
LLC RFO          ACCESS:     561711 HIT:      46039 MISS:     515672
LLC PREFETCH     ACCESS:    1954449 HIT:     204470 MISS:    1749979
LLC WRITE        ACCESS:     562064 HIT:      47071 MISS:     514993
LLC TRANSLATION  ACCESS:      11246 HIT:        332 MISS:      10914
LLC PREFETCH REQUESTED:    1954449 ISSUED:    1954449 USEFUL:      17203 USELESS:    1731400
LLC AVERAGE MISS LATENCY: 894.7 cycles
cpu0_DTLB TOTAL        ACCESS:  130239669 HIT:  128225119 MISS:    2014550
cpu0_DTLB LOAD         ACCESS:  130239669 HIT:  128225119 MISS:    2014550
cpu0_DTLB RFO          ACCESS:          0 HIT:          0 MISS:          0
cpu0_DTLB PREFETCH     ACCESS:          0 HIT:          0 MISS:          0
cpu0_DTLB WRITE        ACCESS:          0 HIT:          0 MISS:          0
cpu0_DTLB TRANSLATION  ACCESS:          0 HIT:          0 MISS:          0
cpu0_DTLB PREFETCH REQUESTED:          0 ISSUED:          0 USEFUL:          0 USELESS:          0
cpu0_DTLB AVERAGE MISS LATENCY: 21.87 cycles
cpu0_ITLB TOTAL        ACCESS:       5020 HIT:       4789 MISS:        231
cpu0_ITLB LOAD         ACCESS:       5020 HIT:       4789 MISS:        231
cpu0_ITLB RFO          ACCESS:          0 HIT:          0 MISS:          0
cpu0_ITLB PREFETCH     ACCESS:          0 HIT:          0 MISS:          0
cpu0_ITLB WRITE        ACCESS:          0 HIT:          0 MISS:          0
cpu0_ITLB TRANSLATION  ACCESS:          0 HIT:          0 MISS:          0
cpu0_ITLB PREFETCH REQUESTED:          0 ISSUED:          0 USEFUL:          0 USELESS:          0
cpu0_ITLB AVERAGE MISS LATENCY: 303.6 cycles
cpu0_L1D TOTAL        ACCESS:  177812810 HIT:  166438166 MISS:   11374644
cpu0_L1D LOAD         ACCESS:   69704137 HIT:   67660193 MISS:    2043944
cpu0_L1D RFO          ACCESS:          0 HIT:          0 MISS:          0
cpu0_L1D PREFETCH     ACCESS:          0 HIT:          0 MISS:          0
cpu0_L1D WRITE        ACCESS:  106803176 HIT:   98218754 MISS:    8584422
cpu0_L1D TRANSLATION  ACCESS:    1305497 HIT:     559219 MISS:     746278
cpu0_L1D PREFETCH REQUESTED:          0 ISSUED:          0 USEFUL:          0 USELESS:          0
cpu0_L1D AVERAGE MISS LATENCY: 188.5 cycles
cpu0_L1I TOTAL        ACCESS:       5728 HIT:       3264 MISS:       2464
cpu0_L1I LOAD         ACCESS:       5728 HIT:       3264 MISS:       2464
cpu0_L1I RFO          ACCESS:          0 HIT:          0 MISS:          0
cpu0_L1I PREFETCH     ACCESS:          0 HIT:          0 MISS:          0
cpu0_L1I WRITE        ACCESS:          0 HIT:          0 MISS:          0
cpu0_L1I TRANSLATION  ACCESS:          0 HIT:          0 MISS:          0
cpu0_L1I PREFETCH REQUESTED:          0 ISSUED:          0 USEFUL:          0 USELESS:          0
cpu0_L1I AVERAGE MISS LATENCY: 288.2 cycles
cpu0_L2C TOTAL        ACCESS:    3903897 HIT:    1376472 MISS:    2527425
cpu0_L2C LOAD         ACCESS:    2009352 HIT:      54903 MISS:    1954449
cpu0_L2C RFO          ACCESS:     573619 HIT:      11908 MISS:     561711
cpu0_L2C PREFETCH     ACCESS:          0 HIT:          0 MISS:          0
cpu0_L2C WRITE        ACCESS:     574669 HIT:     574650 MISS:         19
cpu0_L2C TRANSLATION  ACCESS:     746257 HIT:     735011 MISS:      11246
cpu0_L2C PREFETCH REQUESTED:          0 ISSUED:          0 USEFUL:          0 USELESS:          0
cpu0_L2C AVERAGE MISS LATENCY: 871.5 cycles
cpu0_STLB TOTAL        ACCESS:    1982651 HIT:     677162 MISS:    1305489
cpu0_STLB LOAD         ACCESS:    1982651 HIT:     677162 MISS:    1305489
cpu0_STLB RFO          ACCESS:          0 HIT:          0 MISS:          0
cpu0_STLB PREFETCH     ACCESS:          0 HIT:          0 MISS:          0
cpu0_STLB WRITE        ACCESS:          0 HIT:          0 MISS:          0
cpu0_STLB TRANSLATION  ACCESS:          0 HIT:          0 MISS:          0
cpu0_STLB PREFETCH REQUESTED:          0 ISSUED:          0 USEFUL:          0 USELESS:          0
cpu0_STLB AVERAGE MISS LATENCY: 20.71 cycles

DRAM Statistics

Channel 0 RQ ROW_BUFFER_HIT:     118913
  ROW_BUFFER_MISS:    3900941
 AVG DBUS CONGESTED CYCLE: 3.969
WQ ROW_BUFFER_HIT: Channel 0 
  ROW_BUFFER_MISS:     167560
  FULL:     357313
