WARNING: physical memory size is smaller than virtual memory size.

*** ChampSim Multicore Out-of-Order Simulator ***
Warmup Instructions: 50000000
Simulation Instructions: 600000000
Number of CPUs: 1
Page size: 4096

Off-chip DRAM Size: 4 GiB Channels: 1 Width: 64-bit Data Race: 3200 MT/s
Heartbeat CPU 0 instructions: 10000002 cycles: 2565786 heartbeat IPC: 3.897 cumulative IPC: 3.897 (Simulation time: 00 hr 01 min 18 sec)
Heartbeat CPU 0 instructions: 20000000 cycles: 5131275 heartbeat IPC: 3.898 cumulative IPC: 3.898 (Simulation time: 00 hr 02 min 31 sec)
Heartbeat CPU 0 instructions: 30000000 cycles: 7631275 heartbeat IPC: 4 cumulative IPC: 3.931 (Simulation time: 00 hr 03 min 43 sec)
Heartbeat CPU 0 instructions: 40000000 cycles: 10131275 heartbeat IPC: 4 cumulative IPC: 3.948 (Simulation time: 00 hr 04 min 54 sec)
Heartbeat CPU 0 instructions: 50000000 cycles: 12631275 heartbeat IPC: 4 cumulative IPC: 3.958 (Simulation time: 00 hr 06 min 07 sec)
Warmup finished CPU 0 instructions: 50000000 cycles: 12631276 cumulative IPC: 3.958 (Simulation time: 00 hr 06 min 07 sec)
Warmup complete CPU 0 instructions: 50000000 cycles: 12631276 cumulative IPC: 3.958 (Simulation time: 00 hr 06 min 07 sec)
Heartbeat CPU 0 instructions: 60000000 cycles: 16058853 heartbeat IPC: 2.918 cumulative IPC: 2.918 (Simulation time: 00 hr 07 min 33 sec)
Heartbeat CPU 0 instructions: 70000000 cycles: 19488287 heartbeat IPC: 2.916 cumulative IPC: 2.917 (Simulation time: 00 hr 09 min 08 sec)
Heartbeat CPU 0 instructions: 80000004 cycles: 22914705 heartbeat IPC: 2.919 cumulative IPC: 2.917 (Simulation time: 00 hr 10 min 36 sec)
Heartbeat CPU 0 instructions: 90000000 cycles: 26342393 heartbeat IPC: 2.917 cumulative IPC: 2.917 (Simulation time: 00 hr 12 min 15 sec)
Heartbeat CPU 0 instructions: 100000003 cycles: 29773620 heartbeat IPC: 2.914 cumulative IPC: 2.917 (Simulation time: 00 hr 13 min 52 sec)
Heartbeat CPU 0 instructions: 110000000 cycles: 33199685 heartbeat IPC: 2.919 cumulative IPC: 2.917 (Simulation time: 00 hr 15 min 25 sec)
Heartbeat CPU 0 instructions: 120000001 cycles: 36624208 heartbeat IPC: 2.92 cumulative IPC: 2.918 (Simulation time: 00 hr 16 min 55 sec)
Heartbeat CPU 0 instructions: 130000001 cycles: 40050789 heartbeat IPC: 2.918 cumulative IPC: 2.918 (Simulation time: 00 hr 18 min 24 sec)
Heartbeat CPU 0 instructions: 140000002 cycles: 43477137 heartbeat IPC: 2.919 cumulative IPC: 2.918 (Simulation time: 00 hr 20 min 00 sec)
Heartbeat CPU 0 instructions: 150000000 cycles: 46902216 heartbeat IPC: 2.92 cumulative IPC: 2.918 (Simulation time: 00 hr 21 min 28 sec)
Heartbeat CPU 0 instructions: 160000002 cycles: 50328723 heartbeat IPC: 2.918 cumulative IPC: 2.918 (Simulation time: 00 hr 23 min 08 sec)
Heartbeat CPU 0 instructions: 170000000 cycles: 53756210 heartbeat IPC: 2.918 cumulative IPC: 2.918 (Simulation time: 00 hr 23 min 58 sec)
Heartbeat CPU 0 instructions: 180000004 cycles: 57182236 heartbeat IPC: 2.919 cumulative IPC: 2.918 (Simulation time: 00 hr 24 min 48 sec)
Heartbeat CPU 0 instructions: 190000001 cycles: 60608943 heartbeat IPC: 2.918 cumulative IPC: 2.918 (Simulation time: 00 hr 25 min 40 sec)
Heartbeat CPU 0 instructions: 200000001 cycles: 64034699 heartbeat IPC: 2.919 cumulative IPC: 2.918 (Simulation time: 00 hr 26 min 30 sec)
Heartbeat CPU 0 instructions: 210000004 cycles: 67460594 heartbeat IPC: 2.919 cumulative IPC: 2.918 (Simulation time: 00 hr 27 min 21 sec)
Heartbeat CPU 0 instructions: 220000002 cycles: 70888100 heartbeat IPC: 2.918 cumulative IPC: 2.918 (Simulation time: 00 hr 28 min 13 sec)
Heartbeat CPU 0 instructions: 230000001 cycles: 74335692 heartbeat IPC: 2.901 cumulative IPC: 2.917 (Simulation time: 00 hr 29 min 19 sec)
Heartbeat CPU 0 instructions: 240000003 cycles: 78446101 heartbeat IPC: 2.433 cumulative IPC: 2.887 (Simulation time: 00 hr 30 min 29 sec)
Heartbeat CPU 0 instructions: 250000003 cycles: 81879776 heartbeat IPC: 2.912 cumulative IPC: 2.888 (Simulation time: 00 hr 31 min 17 sec)
Heartbeat CPU 0 instructions: 260000000 cycles: 85306514 heartbeat IPC: 2.918 cumulative IPC: 2.89 (Simulation time: 00 hr 32 min 03 sec)
Heartbeat CPU 0 instructions: 270000004 cycles: 88732509 heartbeat IPC: 2.919 cumulative IPC: 2.891 (Simulation time: 00 hr 32 min 47 sec)
Heartbeat CPU 0 instructions: 280000000 cycles: 92160336 heartbeat IPC: 2.917 cumulative IPC: 2.892 (Simulation time: 00 hr 33 min 32 sec)
Heartbeat CPU 0 instructions: 290000002 cycles: 95588471 heartbeat IPC: 2.917 cumulative IPC: 2.893 (Simulation time: 00 hr 34 min 16 sec)
Heartbeat CPU 0 instructions: 300000004 cycles: 99012037 heartbeat IPC: 2.921 cumulative IPC: 2.894 (Simulation time: 00 hr 35 min 05 sec)
Heartbeat CPU 0 instructions: 310000002 cycles: 102440160 heartbeat IPC: 2.917 cumulative IPC: 2.895 (Simulation time: 00 hr 35 min 52 sec)
Heartbeat CPU 0 instructions: 320000000 cycles: 105867970 heartbeat IPC: 2.917 cumulative IPC: 2.896 (Simulation time: 00 hr 36 min 39 sec)
Heartbeat CPU 0 instructions: 330000004 cycles: 109294719 heartbeat IPC: 2.918 cumulative IPC: 2.897 (Simulation time: 00 hr 37 min 29 sec)
Heartbeat CPU 0 instructions: 340000000 cycles: 112721976 heartbeat IPC: 2.918 cumulative IPC: 2.897 (Simulation time: 00 hr 38 min 20 sec)
Heartbeat CPU 0 instructions: 350000003 cycles: 116150897 heartbeat IPC: 2.916 cumulative IPC: 2.898 (Simulation time: 00 hr 39 min 08 sec)
Heartbeat CPU 0 instructions: 360000003 cycles: 119578545 heartbeat IPC: 2.917 cumulative IPC: 2.899 (Simulation time: 00 hr 39 min 58 sec)
Heartbeat CPU 0 instructions: 370000004 cycles: 123004937 heartbeat IPC: 2.919 cumulative IPC: 2.899 (Simulation time: 00 hr 40 min 49 sec)
Heartbeat CPU 0 instructions: 380000003 cycles: 126430471 heartbeat IPC: 2.919 cumulative IPC: 2.9 (Simulation time: 00 hr 41 min 37 sec)
Heartbeat CPU 0 instructions: 390000000 cycles: 129851450 heartbeat IPC: 2.923 cumulative IPC: 2.901 (Simulation time: 00 hr 42 min 25 sec)
Heartbeat CPU 0 instructions: 400000002 cycles: 133278830 heartbeat IPC: 2.918 cumulative IPC: 2.901 (Simulation time: 00 hr 43 min 14 sec)
Heartbeat CPU 0 instructions: 410000003 cycles: 136706326 heartbeat IPC: 2.918 cumulative IPC: 2.901 (Simulation time: 00 hr 43 min 59 sec)
Heartbeat CPU 0 instructions: 420000001 cycles: 140134154 heartbeat IPC: 2.917 cumulative IPC: 2.902 (Simulation time: 00 hr 44 min 46 sec)
Heartbeat CPU 0 instructions: 430000001 cycles: 143562904 heartbeat IPC: 2.917 cumulative IPC: 2.902 (Simulation time: 00 hr 45 min 32 sec)
Heartbeat CPU 0 instructions: 440000002 cycles: 146987464 heartbeat IPC: 2.92 cumulative IPC: 2.903 (Simulation time: 00 hr 46 min 19 sec)
Heartbeat CPU 0 instructions: 450000001 cycles: 149978955 heartbeat IPC: 3.343 cumulative IPC: 2.912 (Simulation time: 00 hr 47 min 12 sec)
Heartbeat CPU 0 instructions: 460000002 cycles: 153826705 heartbeat IPC: 2.599 cumulative IPC: 2.904 (Simulation time: 00 hr 48 min 15 sec)
Heartbeat CPU 0 instructions: 470000004 cycles: 157250015 heartbeat IPC: 2.921 cumulative IPC: 2.904 (Simulation time: 00 hr 49 min 03 sec)
Heartbeat CPU 0 instructions: 480000000 cycles: 160678242 heartbeat IPC: 2.917 cumulative IPC: 2.904 (Simulation time: 00 hr 49 min 50 sec)
Heartbeat CPU 0 instructions: 490000000 cycles: 164103617 heartbeat IPC: 2.919 cumulative IPC: 2.905 (Simulation time: 00 hr 50 min 38 sec)
Heartbeat CPU 0 instructions: 500000002 cycles: 167530379 heartbeat IPC: 2.918 cumulative IPC: 2.905 (Simulation time: 00 hr 51 min 29 sec)
Heartbeat CPU 0 instructions: 510000001 cycles: 170959312 heartbeat IPC: 2.916 cumulative IPC: 2.905 (Simulation time: 00 hr 52 min 19 sec)
Heartbeat CPU 0 instructions: 520000003 cycles: 174384643 heartbeat IPC: 2.919 cumulative IPC: 2.906 (Simulation time: 00 hr 53 min 09 sec)
Heartbeat CPU 0 instructions: 530000002 cycles: 177808513 heartbeat IPC: 2.921 cumulative IPC: 2.906 (Simulation time: 00 hr 54 min 02 sec)
Heartbeat CPU 0 instructions: 540000000 cycles: 181237212 heartbeat IPC: 2.917 cumulative IPC: 2.906 (Simulation time: 00 hr 54 min 52 sec)
Heartbeat CPU 0 instructions: 550000000 cycles: 184663453 heartbeat IPC: 2.919 cumulative IPC: 2.906 (Simulation time: 00 hr 55 min 41 sec)
Heartbeat CPU 0 instructions: 560000001 cycles: 188088202 heartbeat IPC: 2.92 cumulative IPC: 2.907 (Simulation time: 00 hr 56 min 27 sec)
Heartbeat CPU 0 instructions: 570000001 cycles: 191513684 heartbeat IPC: 2.919 cumulative IPC: 2.907 (Simulation time: 00 hr 57 min 12 sec)
Heartbeat CPU 0 instructions: 580000000 cycles: 194943473 heartbeat IPC: 2.916 cumulative IPC: 2.907 (Simulation time: 00 hr 57 min 57 sec)
Heartbeat CPU 0 instructions: 590000003 cycles: 198369858 heartbeat IPC: 2.919 cumulative IPC: 2.907 (Simulation time: 00 hr 58 min 38 sec)
*** Reached end of trace: (0, "traces/l1l2cache.champsimtrace")
Heartbeat CPU 0 instructions: 600000001 cycles: 201797994 heartbeat IPC: 2.917 cumulative IPC: 2.907 (Simulation time: 00 hr 59 min 22 sec)
Heartbeat CPU 0 instructions: 610000000 cycles: 206299658 heartbeat IPC: 2.221 cumulative IPC: 2.892 (Simulation time: 01 hr 00 min 19 sec)
Heartbeat CPU 0 instructions: 620000004 cycles: 209050059 heartbeat IPC: 3.636 cumulative IPC: 2.902 (Simulation time: 01 hr 01 min 04 sec)
Heartbeat CPU 0 instructions: 630000004 cycles: 212473135 heartbeat IPC: 2.921 cumulative IPC: 2.902 (Simulation time: 01 hr 01 min 48 sec)
Heartbeat CPU 0 instructions: 640000000 cycles: 215898063 heartbeat IPC: 2.92 cumulative IPC: 2.903 (Simulation time: 01 hr 02 min 30 sec)
Heartbeat CPU 0 instructions: 650000004 cycles: 219327467 heartbeat IPC: 2.916 cumulative IPC: 2.903 (Simulation time: 01 hr 03 min 13 sec)
Simulation finished CPU 0 instructions: 600000004 cycles: 206696192 cumulative IPC: 2.903 (Simulation time: 01 hr 03 min 13 sec)
Simulation complete CPU 0 instructions: 600000004 cycles: 206696192 cumulative IPC: 2.903 (Simulation time: 01 hr 03 min 13 sec)

ChampSim completed all CPUs

=== Simulation ===
CPU 0 runs traces/l1l2cache.champsimtrace
Region of Interest Statistics

CPU 0 cumulative IPC: 2.903 instructions: 600000004 cycles: 206696192
CPU 0 Branch Prediction Accuracy: 93.04% MPKI: 5.913 Average ROB Occupancy at Mispredict: 67.87
Branch type MPKI
BRANCH_DIRECT_JUMP: 9.5e-05
BRANCH_INDIRECT: 0.000282
BRANCH_CONDITIONAL: 5.91
BRANCH_DIRECT_CALL: 3.33e-06
BRANCH_INDIRECT_CALL: 4.83e-05
BRANCH_RETURN: 3.33e-05

LLC TOTAL        ACCESS:     408710 HIT:     270227 MISS:     138483
LLC LOAD         ACCESS:      59444 HIT:      46156 MISS:      13288
LLC RFO          ACCESS:      99913 HIT:      56765 MISS:      43148
LLC PREFETCH     ACCESS:     149046 HIT:     103433 MISS:      45613
LLC WRITE        ACCESS:     100302 HIT:      63873 MISS:      36429
LLC TRANSLATION  ACCESS:          5 HIT:          0 MISS:          5
LLC PREFETCH REQUESTED:     149046 ISSUED:     149046 USEFUL:      19753 USELESS:        151
LLC AVERAGE MISS LATENCY: 253.8 cycles
cpu0_DTLB TOTAL        ACCESS:   82392466 HIT:   82381612 MISS:      10854
cpu0_DTLB LOAD         ACCESS:   82392466 HIT:   82381612 MISS:      10854
cpu0_DTLB RFO          ACCESS:          0 HIT:          0 MISS:          0
cpu0_DTLB PREFETCH     ACCESS:          0 HIT:          0 MISS:          0
cpu0_DTLB WRITE        ACCESS:          0 HIT:          0 MISS:          0
cpu0_DTLB TRANSLATION  ACCESS:          0 HIT:          0 MISS:          0
cpu0_DTLB PREFETCH REQUESTED:          0 ISSUED:          0 USEFUL:          0 USELESS:          0
cpu0_DTLB AVERAGE MISS LATENCY: 5.853 cycles
cpu0_ITLB TOTAL        ACCESS:       5556 HIT:       5339 MISS:        217
cpu0_ITLB LOAD         ACCESS:       5556 HIT:       5339 MISS:        217
cpu0_ITLB RFO          ACCESS:          0 HIT:          0 MISS:          0
cpu0_ITLB PREFETCH     ACCESS:          0 HIT:          0 MISS:          0
cpu0_ITLB WRITE        ACCESS:          0 HIT:          0 MISS:          0
cpu0_ITLB TRANSLATION  ACCESS:          0 HIT:          0 MISS:          0
cpu0_ITLB PREFETCH REQUESTED:          0 ISSUED:          0 USEFUL:          0 USELESS:          0
cpu0_ITLB AVERAGE MISS LATENCY: 6.498 cycles
cpu0_L1D TOTAL        ACCESS:  104671373 HIT:  103043267 MISS:    1628106
cpu0_L1D LOAD         ACCESS:   45416500 HIT:   45024164 MISS:     392336
cpu0_L1D RFO          ACCESS:          0 HIT:          0 MISS:          0
cpu0_L1D PREFETCH     ACCESS:          0 HIT:          0 MISS:          0
cpu0_L1D WRITE        ACCESS:   59254615 HIT:   58018850 MISS:    1235765
cpu0_L1D TRANSLATION  ACCESS:        258 HIT:        253 MISS:          5
cpu0_L1D PREFETCH REQUESTED:          0 ISSUED:          0 USEFUL:          0 USELESS:          0
cpu0_L1D AVERAGE MISS LATENCY: 16.65 cycles
cpu0_L1I TOTAL        ACCESS:       6322 HIT:       4064 MISS:       2258
cpu0_L1I LOAD         ACCESS:       6322 HIT:       4064 MISS:       2258
cpu0_L1I RFO          ACCESS:          0 HIT:          0 MISS:          0
cpu0_L1I PREFETCH     ACCESS:          0 HIT:          0 MISS:          0
cpu0_L1I WRITE        ACCESS:          0 HIT:          0 MISS:          0
cpu0_L1I TRANSLATION  ACCESS:          0 HIT:          0 MISS:          0
cpu0_L1I PREFETCH REQUESTED:          0 ISSUED:          0 USEFUL:          0 USELESS:          0
cpu0_L1I AVERAGE MISS LATENCY: 240.4 cycles
cpu0_L2C TOTAL        ACCESS:     265741 HIT:     106358 MISS:     159383
cpu0_L2C LOAD         ACCESS:      63734 HIT:       4290 MISS:      59444
cpu0_L2C RFO          ACCESS:     100739 HIT:        826 MISS:      99913
cpu0_L2C PREFETCH     ACCESS:          0 HIT:          0 MISS:          0
cpu0_L2C WRITE        ACCESS:     101263 HIT:     101242 MISS:         21
cpu0_L2C TRANSLATION  ACCESS:          5 HIT:          0 MISS:          5
cpu0_L2C PREFETCH REQUESTED:          0 ISSUED:          0 USEFUL:          0 USELESS:          0
cpu0_L2C AVERAGE MISS LATENCY: 202.1 cycles
cpu0_STLB TOTAL        ACCESS:       3911 HIT:       3654 MISS:        257
cpu0_STLB LOAD         ACCESS:       3911 HIT:       3654 MISS:        257
cpu0_STLB RFO          ACCESS:          0 HIT:          0 MISS:          0
cpu0_STLB PREFETCH     ACCESS:          0 HIT:          0 MISS:          0
cpu0_STLB WRITE        ACCESS:          0 HIT:          0 MISS:          0
cpu0_STLB TRANSLATION  ACCESS:          0 HIT:          0 MISS:          0
cpu0_STLB PREFETCH REQUESTED:          0 ISSUED:          0 USEFUL:          0 USELESS:          0
cpu0_STLB AVERAGE MISS LATENCY: 217.8 cycles

DRAM Statistics

Channel 0 RQ ROW_BUFFER_HIT:      37269
  ROW_BUFFER_MISS:      31676
 AVG DBUS CONGESTED CYCLE: 3.95
WQ ROW_BUFFER_HIT: Channel 0 
  ROW_BUFFER_MISS:      15800
  FULL:      23782
