WARNING: physical memory size is smaller than virtual memory size.

*** ChampSim Multicore Out-of-Order Simulator ***
Warmup Instructions: 50000000
Simulation Instructions: 600000000
Number of CPUs: 1
Page size: 4096

Off-chip DRAM Size: 4 GiB Channels: 1 Width: 64-bit Data Race: 3200 MT/s
Heartbeat CPU 0 instructions: 10000004 cycles: 2777663 heartbeat IPC: 3.6 cumulative IPC: 3.6 (Simulation time: 00 hr 00 min 59 sec)
Heartbeat CPU 0 instructions: 20000001 cycles: 5634805 heartbeat IPC: 3.5 cumulative IPC: 3.549 (Simulation time: 00 hr 01 min 59 sec)
Heartbeat CPU 0 instructions: 30000000 cycles: 8491948 heartbeat IPC: 3.5 cumulative IPC: 3.533 (Simulation time: 00 hr 03 min 04 sec)
Heartbeat CPU 0 instructions: 40000003 cycles: 11120601 heartbeat IPC: 3.804 cumulative IPC: 3.597 (Simulation time: 00 hr 04 min 06 sec)
Heartbeat CPU 0 instructions: 50000003 cycles: 13620601 heartbeat IPC: 4 cumulative IPC: 3.671 (Simulation time: 00 hr 04 min 59 sec)
Warmup finished CPU 0 instructions: 50000003 cycles: 13620602 cumulative IPC: 3.671 (Simulation time: 00 hr 04 min 59 sec)
Warmup complete CPU 0 instructions: 50000003 cycles: 13620602 cumulative IPC: 3.671 (Simulation time: 00 hr 04 min 59 sec)
Heartbeat CPU 0 instructions: 60000002 cycles: 16347845 heartbeat IPC: 3.667 cumulative IPC: 3.667 (Simulation time: 00 hr 05 min 59 sec)
Heartbeat CPU 0 instructions: 70000001 cycles: 19075145 heartbeat IPC: 3.667 cumulative IPC: 3.667 (Simulation time: 00 hr 06 min 58 sec)
Heartbeat CPU 0 instructions: 80000001 cycles: 21802387 heartbeat IPC: 3.667 cumulative IPC: 3.667 (Simulation time: 00 hr 08 min 01 sec)
Heartbeat CPU 0 instructions: 90000000 cycles: 24530486 heartbeat IPC: 3.666 cumulative IPC: 3.666 (Simulation time: 00 hr 09 min 06 sec)
Heartbeat CPU 0 instructions: 100000003 cycles: 27257729 heartbeat IPC: 3.667 cumulative IPC: 3.666 (Simulation time: 00 hr 10 min 10 sec)
Heartbeat CPU 0 instructions: 110000004 cycles: 29985032 heartbeat IPC: 3.667 cumulative IPC: 3.666 (Simulation time: 00 hr 11 min 11 sec)
Heartbeat CPU 0 instructions: 120000003 cycles: 32712302 heartbeat IPC: 3.667 cumulative IPC: 3.667 (Simulation time: 00 hr 12 min 18 sec)
Heartbeat CPU 0 instructions: 130000003 cycles: 35439575 heartbeat IPC: 3.667 cumulative IPC: 3.667 (Simulation time: 00 hr 13 min 28 sec)
Heartbeat CPU 0 instructions: 140000002 cycles: 38167661 heartbeat IPC: 3.666 cumulative IPC: 3.666 (Simulation time: 00 hr 14 min 38 sec)
Heartbeat CPU 0 instructions: 150000000 cycles: 40894904 heartbeat IPC: 3.667 cumulative IPC: 3.666 (Simulation time: 00 hr 15 min 42 sec)
Heartbeat CPU 0 instructions: 160000001 cycles: 43622208 heartbeat IPC: 3.667 cumulative IPC: 3.666 (Simulation time: 00 hr 16 min 44 sec)
Heartbeat CPU 0 instructions: 170000004 cycles: 46349449 heartbeat IPC: 3.667 cumulative IPC: 3.666 (Simulation time: 00 hr 17 min 46 sec)
Heartbeat CPU 0 instructions: 180000000 cycles: 49078049 heartbeat IPC: 3.665 cumulative IPC: 3.666 (Simulation time: 00 hr 18 min 47 sec)
Heartbeat CPU 0 instructions: 190000004 cycles: 51805335 heartbeat IPC: 3.667 cumulative IPC: 3.666 (Simulation time: 00 hr 20 min 09 sec)
Heartbeat CPU 0 instructions: 200000002 cycles: 54532593 heartbeat IPC: 3.667 cumulative IPC: 3.666 (Simulation time: 00 hr 21 min 37 sec)
Heartbeat CPU 0 instructions: 210000003 cycles: 57259896 heartbeat IPC: 3.667 cumulative IPC: 3.666 (Simulation time: 00 hr 23 min 51 sec)
Heartbeat CPU 0 instructions: 220000001 cycles: 59987138 heartbeat IPC: 3.667 cumulative IPC: 3.666 (Simulation time: 00 hr 25 min 54 sec)
Heartbeat CPU 0 instructions: 230000002 cycles: 62715660 heartbeat IPC: 3.665 cumulative IPC: 3.666 (Simulation time: 00 hr 28 min 01 sec)
Heartbeat CPU 0 instructions: 240000003 cycles: 65442902 heartbeat IPC: 3.667 cumulative IPC: 3.666 (Simulation time: 00 hr 30 min 11 sec)
Heartbeat CPU 0 instructions: 250000004 cycles: 68170205 heartbeat IPC: 3.667 cumulative IPC: 3.666 (Simulation time: 00 hr 32 min 08 sec)
Heartbeat CPU 0 instructions: 260000000 cycles: 70897488 heartbeat IPC: 3.667 cumulative IPC: 3.666 (Simulation time: 00 hr 34 min 50 sec)
Heartbeat CPU 0 instructions: 270000003 cycles: 73625106 heartbeat IPC: 3.666 cumulative IPC: 3.666 (Simulation time: 00 hr 37 min 31 sec)
Heartbeat CPU 0 instructions: 280000001 cycles: 76352407 heartbeat IPC: 3.667 cumulative IPC: 3.666 (Simulation time: 00 hr 40 min 00 sec)
Heartbeat CPU 0 instructions: 290000000 cycles: 79079648 heartbeat IPC: 3.667 cumulative IPC: 3.666 (Simulation time: 00 hr 42 min 04 sec)
Heartbeat CPU 0 instructions: 300000001 cycles: 81806951 heartbeat IPC: 3.667 cumulative IPC: 3.666 (Simulation time: 00 hr 44 min 00 sec)
Heartbeat CPU 0 instructions: 310000000 cycles: 84534193 heartbeat IPC: 3.667 cumulative IPC: 3.666 (Simulation time: 00 hr 46 min 48 sec)
Heartbeat CPU 0 instructions: 320000000 cycles: 87262591 heartbeat IPC: 3.665 cumulative IPC: 3.666 (Simulation time: 00 hr 49 min 31 sec)
Heartbeat CPU 0 instructions: 330000001 cycles: 89989887 heartbeat IPC: 3.667 cumulative IPC: 3.666 (Simulation time: 00 hr 52 min 01 sec)
Heartbeat CPU 0 instructions: 340000002 cycles: 92717134 heartbeat IPC: 3.667 cumulative IPC: 3.666 (Simulation time: 00 hr 54 min 14 sec)
Heartbeat CPU 0 instructions: 350000003 cycles: 95444437 heartbeat IPC: 3.667 cumulative IPC: 3.666 (Simulation time: 00 hr 56 min 58 sec)
Heartbeat CPU 0 instructions: 360000001 cycles: 98173509 heartbeat IPC: 3.664 cumulative IPC: 3.666 (Simulation time: 00 hr 59 min 32 sec)
Heartbeat CPU 0 instructions: 370000002 cycles: 100900813 heartbeat IPC: 3.667 cumulative IPC: 3.666 (Simulation time: 01 hr 02 min 06 sec)
Heartbeat CPU 0 instructions: 380000001 cycles: 103628067 heartbeat IPC: 3.667 cumulative IPC: 3.666 (Simulation time: 01 hr 04 min 38 sec)
Heartbeat CPU 0 instructions: 390000004 cycles: 106355356 heartbeat IPC: 3.667 cumulative IPC: 3.666 (Simulation time: 01 hr 07 min 04 sec)
Heartbeat CPU 0 instructions: 400000000 cycles: 109082656 heartbeat IPC: 3.667 cumulative IPC: 3.666 (Simulation time: 01 hr 09 min 18 sec)
Heartbeat CPU 0 instructions: 410000003 cycles: 111810275 heartbeat IPC: 3.666 cumulative IPC: 3.666 (Simulation time: 01 hr 11 min 35 sec)
Heartbeat CPU 0 instructions: 420000003 cycles: 120598496 heartbeat IPC: 1.138 cumulative IPC: 3.459 (Simulation time: 01 hr 17 min 24 sec)
Heartbeat CPU 0 instructions: 430000002 cycles: 148442538 heartbeat IPC: 0.3591 cumulative IPC: 2.819 (Simulation time: 01 hr 31 min 15 sec)
Heartbeat CPU 0 instructions: 440000004 cycles: 176241910 heartbeat IPC: 0.3597 cumulative IPC: 2.398 (Simulation time: 01 hr 44 min 48 sec)
Heartbeat CPU 0 instructions: 450000000 cycles: 204068768 heartbeat IPC: 0.3594 cumulative IPC: 2.1 (Simulation time: 01 hr 59 min 18 sec)
Heartbeat CPU 0 instructions: 460000002 cycles: 231707116 heartbeat IPC: 0.3618 cumulative IPC: 1.88 (Simulation time: 02 hr 13 min 12 sec)
Heartbeat CPU 0 instructions: 470000003 cycles: 259400740 heartbeat IPC: 0.3611 cumulative IPC: 1.709 (Simulation time: 02 hr 26 min 48 sec)
Heartbeat CPU 0 instructions: 480000004 cycles: 286904536 heartbeat IPC: 0.3636 cumulative IPC: 1.573 (Simulation time: 02 hr 41 min 29 sec)
Heartbeat CPU 0 instructions: 490000000 cycles: 314544226 heartbeat IPC: 0.3618 cumulative IPC: 1.462 (Simulation time: 02 hr 56 min 50 sec)
Heartbeat CPU 0 instructions: 500000001 cycles: 342122851 heartbeat IPC: 0.3626 cumulative IPC: 1.37 (Simulation time: 03 hr 12 min 12 sec)
Heartbeat CPU 0 instructions: 510000002 cycles: 369589731 heartbeat IPC: 0.3641 cumulative IPC: 1.292 (Simulation time: 03 hr 26 min 46 sec)
Heartbeat CPU 0 instructions: 520000003 cycles: 397101725 heartbeat IPC: 0.3635 cumulative IPC: 1.226 (Simulation time: 03 hr 41 min 38 sec)
Heartbeat CPU 0 instructions: 530000004 cycles: 424370366 heartbeat IPC: 0.3667 cumulative IPC: 1.169 (Simulation time: 03 hr 49 min 07 sec)
Heartbeat CPU 0 instructions: 540000004 cycles: 451725280 heartbeat IPC: 0.3656 cumulative IPC: 1.118 (Simulation time: 03 hr 53 min 14 sec)
Heartbeat CPU 0 instructions: 550000000 cycles: 479108667 heartbeat IPC: 0.3652 cumulative IPC: 1.074 (Simulation time: 03 hr 57 min 34 sec)
Heartbeat CPU 0 instructions: 560000002 cycles: 506419079 heartbeat IPC: 0.3662 cumulative IPC: 1.035 (Simulation time: 04 hr 01 min 57 sec)
Heartbeat CPU 0 instructions: 570000002 cycles: 533806469 heartbeat IPC: 0.3651 cumulative IPC: 0.9996 (Simulation time: 04 hr 06 min 17 sec)
Heartbeat CPU 0 instructions: 580000004 cycles: 561108901 heartbeat IPC: 0.3663 cumulative IPC: 0.9681 (Simulation time: 04 hr 10 min 15 sec)
Heartbeat CPU 0 instructions: 590000000 cycles: 588401556 heartbeat IPC: 0.3664 cumulative IPC: 0.9395 (Simulation time: 04 hr 14 min 17 sec)
*** Reached end of trace: (0, "traces/l1l2l3cache.champsimtrace")
Heartbeat CPU 0 instructions: 600000000 cycles: 615660389 heartbeat IPC: 0.3669 cumulative IPC: 0.9136 (Simulation time: 04 hr 18 min 37 sec)
Heartbeat CPU 0 instructions: 610000002 cycles: 625466351 heartbeat IPC: 1.02 cumulative IPC: 0.9153 (Simulation time: 04 hr 20 min 13 sec)
Heartbeat CPU 0 instructions: 620000001 cycles: 640256755 heartbeat IPC: 0.6761 cumulative IPC: 0.9096 (Simulation time: 04 hr 22 min 35 sec)
Heartbeat CPU 0 instructions: 630000000 cycles: 655012974 heartbeat IPC: 0.6777 cumulative IPC: 0.9043 (Simulation time: 04 hr 26 min 14 sec)
Heartbeat CPU 0 instructions: 640000000 cycles: 662081868 heartbeat IPC: 1.415 cumulative IPC: 0.9098 (Simulation time: 04 hr 28 min 01 sec)
Heartbeat CPU 0 instructions: 650000003 cycles: 664809140 heartbeat IPC: 3.667 cumulative IPC: 0.9214 (Simulation time: 04 hr 28 min 55 sec)
Simulation finished CPU 0 instructions: 600000000 cycles: 651188539 cumulative IPC: 0.9214 (Simulation time: 04 hr 28 min 55 sec)
Simulation complete CPU 0 instructions: 600000000 cycles: 651188539 cumulative IPC: 0.9214 (Simulation time: 04 hr 28 min 55 sec)

ChampSim completed all CPUs

=== Simulation ===
CPU 0 runs traces/l1l2l3cache.champsimtrace
Region of Interest Statistics

CPU 0 cumulative IPC: 0.9214 instructions: 600000000 cycles: 651188539
CPU 0 Branch Prediction Accuracy: 99.34% MPKI: 1.413 Average ROB Occupancy at Mispredict: 144.3
Branch type MPKI
BRANCH_DIRECT_JUMP: 8.5e-05
BRANCH_INDIRECT: 0.000237
BRANCH_CONDITIONAL: 1.41
BRANCH_DIRECT_CALL: 5e-06
BRANCH_INDIRECT_CALL: 4.67e-05
BRANCH_RETURN: 3.67e-05

LLC TOTAL        ACCESS:    5043912 HIT:     463164 MISS:    4580748
LLC LOAD         ACCESS:    1954445 HIT:     184382 MISS:    1770063
LLC RFO          ACCESS:     561710 HIT:      47249 MISS:     514461
LLC PREFETCH     ACCESS:    1954445 HIT:     182733 MISS:    1771712
LLC WRITE        ACCESS:     562068 HIT:      47967 MISS:     514101
LLC TRANSLATION  ACCESS:      11244 HIT:        833 MISS:      10411
LLC PREFETCH REQUESTED:    1954445 ISSUED:    1954445 USEFUL:      13615 USELESS:    1757850
LLC AVERAGE MISS LATENCY: 896.3 cycles
cpu0_DTLB TOTAL        ACCESS:  131601527 HIT:  129586716 MISS:    2014811
cpu0_DTLB LOAD         ACCESS:  131601527 HIT:  129586716 MISS:    2014811
cpu0_DTLB RFO          ACCESS:          0 HIT:          0 MISS:          0
cpu0_DTLB PREFETCH     ACCESS:          0 HIT:          0 MISS:          0
cpu0_DTLB WRITE        ACCESS:          0 HIT:          0 MISS:          0
cpu0_DTLB TRANSLATION  ACCESS:          0 HIT:          0 MISS:          0
cpu0_DTLB PREFETCH REQUESTED:          0 ISSUED:          0 USEFUL:          0 USELESS:          0
cpu0_DTLB AVERAGE MISS LATENCY: 21.68 cycles
cpu0_ITLB TOTAL        ACCESS:       4980 HIT:       4758 MISS:        222
cpu0_ITLB LOAD         ACCESS:       4980 HIT:       4758 MISS:        222
cpu0_ITLB RFO          ACCESS:          0 HIT:          0 MISS:          0
cpu0_ITLB PREFETCH     ACCESS:          0 HIT:          0 MISS:          0
cpu0_ITLB WRITE        ACCESS:          0 HIT:          0 MISS:          0
cpu0_ITLB TRANSLATION  ACCESS:          0 HIT:          0 MISS:          0
cpu0_ITLB PREFETCH REQUESTED:          0 ISSUED:          0 USEFUL:          0 USELESS:          0
cpu0_ITLB AVERAGE MISS LATENCY: 223.5 cycles
cpu0_L1D TOTAL        ACCESS:  179289660 HIT:  168019745 MISS:   11269915
cpu0_L1D LOAD         ACCESS:   71034149 HIT:   68991943 MISS:    2042206
cpu0_L1D RFO          ACCESS:          0 HIT:          0 MISS:          0
cpu0_L1D PREFETCH     ACCESS:          0 HIT:          0 MISS:          0
cpu0_L1D WRITE        ACCESS:  106950021 HIT:   98468576 MISS:    8481445
cpu0_L1D TRANSLATION  ACCESS:    1305490 HIT:     559226 MISS:     746264
cpu0_L1D PREFETCH REQUESTED:          0 ISSUED:          0 USEFUL:          0 USELESS:          0
cpu0_L1D AVERAGE MISS LATENCY: 191.7 cycles
cpu0_L1I TOTAL        ACCESS:       5682 HIT:       3437 MISS:       2245
cpu0_L1I LOAD         ACCESS:       5682 HIT:       3437 MISS:       2245
cpu0_L1I RFO          ACCESS:          0 HIT:          0 MISS:          0
cpu0_L1I PREFETCH     ACCESS:          0 HIT:          0 MISS:          0
cpu0_L1I WRITE        ACCESS:          0 HIT:          0 MISS:          0
cpu0_L1I TRANSLATION  ACCESS:          0 HIT:          0 MISS:          0
cpu0_L1I PREFETCH REQUESTED:          0 ISSUED:          0 USEFUL:          0 USELESS:          0
cpu0_L1I AVERAGE MISS LATENCY: 216.7 cycles
cpu0_L2C TOTAL        ACCESS:    3903895 HIT:    1376477 MISS:    2527418
cpu0_L2C LOAD         ACCESS:    2009353 HIT:      54908 MISS:    1954445
cpu0_L2C RFO          ACCESS:     573621 HIT:      11911 MISS:     561710
cpu0_L2C PREFETCH     ACCESS:          0 HIT:          0 MISS:          0
cpu0_L2C WRITE        ACCESS:     574676 HIT:     574657 MISS:         19
cpu0_L2C TRANSLATION  ACCESS:     746245 HIT:     735001 MISS:      11244
cpu0_L2C PREFETCH REQUESTED:          0 ISSUED:          0 USEFUL:          0 USELESS:          0
cpu0_L2C AVERAGE MISS LATENCY: 877.4 cycles
cpu0_STLB TOTAL        ACCESS:    1982676 HIT:     677194 MISS:    1305482
cpu0_STLB LOAD         ACCESS:    1982676 HIT:     677194 MISS:    1305482
cpu0_STLB RFO          ACCESS:          0 HIT:          0 MISS:          0
cpu0_STLB PREFETCH     ACCESS:          0 HIT:          0 MISS:          0
cpu0_STLB WRITE        ACCESS:          0 HIT:          0 MISS:          0
cpu0_STLB TRANSLATION  ACCESS:          0 HIT:          0 MISS:          0
cpu0_STLB PREFETCH REQUESTED:          0 ISSUED:          0 USEFUL:          0 USELESS:          0
cpu0_STLB AVERAGE MISS LATENCY: 20.41 cycles

DRAM Statistics

Channel 0 RQ ROW_BUFFER_HIT:     107958
  ROW_BUFFER_MISS:    3956050
 AVG DBUS CONGESTED CYCLE: 3.971
WQ ROW_BUFFER_HIT: Channel 0 
  ROW_BUFFER_MISS:     165302
  FULL:     350501
