WARNING: physical memory size is smaller than virtual memory size.

*** ChampSim Multicore Out-of-Order Simulator ***
Warmup Instructions: 50000000
Simulation Instructions: 600000000
Number of CPUs: 1
Page size: 4096

Off-chip DRAM Size: 4 GiB Channels: 1 Width: 64-bit Data Race: 3200 MT/s
Heartbeat CPU 0 instructions: 10000004 cycles: 2777663 heartbeat IPC: 3.6 cumulative IPC: 3.6 (Simulation time: 00 hr 00 min 45 sec)
Heartbeat CPU 0 instructions: 20000001 cycles: 5634805 heartbeat IPC: 3.5 cumulative IPC: 3.549 (Simulation time: 00 hr 01 min 30 sec)
Heartbeat CPU 0 instructions: 30000000 cycles: 8491948 heartbeat IPC: 3.5 cumulative IPC: 3.533 (Simulation time: 00 hr 02 min 13 sec)
Heartbeat CPU 0 instructions: 40000003 cycles: 11120601 heartbeat IPC: 3.804 cumulative IPC: 3.597 (Simulation time: 00 hr 02 min 53 sec)
Heartbeat CPU 0 instructions: 50000003 cycles: 13620601 heartbeat IPC: 4 cumulative IPC: 3.671 (Simulation time: 00 hr 03 min 31 sec)
Warmup finished CPU 0 instructions: 50000003 cycles: 13620602 cumulative IPC: 3.671 (Simulation time: 00 hr 03 min 31 sec)
Warmup complete CPU 0 instructions: 50000003 cycles: 13620602 cumulative IPC: 3.671 (Simulation time: 00 hr 03 min 31 sec)
Heartbeat CPU 0 instructions: 60000002 cycles: 16347845 heartbeat IPC: 3.667 cumulative IPC: 3.667 (Simulation time: 00 hr 04 min 17 sec)
Heartbeat CPU 0 instructions: 70000001 cycles: 19075145 heartbeat IPC: 3.667 cumulative IPC: 3.667 (Simulation time: 00 hr 05 min 01 sec)
Heartbeat CPU 0 instructions: 80000001 cycles: 21802387 heartbeat IPC: 3.667 cumulative IPC: 3.667 (Simulation time: 00 hr 05 min 45 sec)
Heartbeat CPU 0 instructions: 90000000 cycles: 24530053 heartbeat IPC: 3.666 cumulative IPC: 3.667 (Simulation time: 00 hr 06 min 27 sec)
Heartbeat CPU 0 instructions: 100000003 cycles: 27257296 heartbeat IPC: 3.667 cumulative IPC: 3.667 (Simulation time: 00 hr 07 min 14 sec)
Heartbeat CPU 0 instructions: 110000004 cycles: 29984599 heartbeat IPC: 3.667 cumulative IPC: 3.667 (Simulation time: 00 hr 07 min 57 sec)
Heartbeat CPU 0 instructions: 120000003 cycles: 32711869 heartbeat IPC: 3.667 cumulative IPC: 3.667 (Simulation time: 00 hr 08 min 40 sec)
Heartbeat CPU 0 instructions: 130000003 cycles: 35439142 heartbeat IPC: 3.667 cumulative IPC: 3.667 (Simulation time: 00 hr 09 min 26 sec)
Heartbeat CPU 0 instructions: 140000002 cycles: 38167257 heartbeat IPC: 3.666 cumulative IPC: 3.666 (Simulation time: 00 hr 10 min 06 sec)
Heartbeat CPU 0 instructions: 150000000 cycles: 40894500 heartbeat IPC: 3.667 cumulative IPC: 3.667 (Simulation time: 00 hr 10 min 49 sec)
Heartbeat CPU 0 instructions: 160000001 cycles: 43621804 heartbeat IPC: 3.667 cumulative IPC: 3.667 (Simulation time: 00 hr 11 min 30 sec)
Heartbeat CPU 0 instructions: 170000004 cycles: 46349045 heartbeat IPC: 3.667 cumulative IPC: 3.667 (Simulation time: 00 hr 12 min 10 sec)
Heartbeat CPU 0 instructions: 180000000 cycles: 49077551 heartbeat IPC: 3.665 cumulative IPC: 3.666 (Simulation time: 00 hr 12 min 49 sec)
Heartbeat CPU 0 instructions: 190000004 cycles: 51804837 heartbeat IPC: 3.667 cumulative IPC: 3.666 (Simulation time: 00 hr 13 min 29 sec)
Heartbeat CPU 0 instructions: 200000002 cycles: 54532095 heartbeat IPC: 3.667 cumulative IPC: 3.666 (Simulation time: 00 hr 14 min 08 sec)
Heartbeat CPU 0 instructions: 210000003 cycles: 57259398 heartbeat IPC: 3.667 cumulative IPC: 3.666 (Simulation time: 00 hr 14 min 47 sec)
Heartbeat CPU 0 instructions: 220000001 cycles: 59986640 heartbeat IPC: 3.667 cumulative IPC: 3.666 (Simulation time: 00 hr 15 min 29 sec)
Heartbeat CPU 0 instructions: 230000002 cycles: 62714317 heartbeat IPC: 3.666 cumulative IPC: 3.666 (Simulation time: 00 hr 16 min 09 sec)
Heartbeat CPU 0 instructions: 240000003 cycles: 65441559 heartbeat IPC: 3.667 cumulative IPC: 3.666 (Simulation time: 00 hr 16 min 53 sec)
Heartbeat CPU 0 instructions: 250000004 cycles: 68168862 heartbeat IPC: 3.667 cumulative IPC: 3.666 (Simulation time: 00 hr 17 min 39 sec)
Heartbeat CPU 0 instructions: 260000000 cycles: 70896145 heartbeat IPC: 3.667 cumulative IPC: 3.666 (Simulation time: 00 hr 18 min 22 sec)
Heartbeat CPU 0 instructions: 270000003 cycles: 73623763 heartbeat IPC: 3.666 cumulative IPC: 3.666 (Simulation time: 00 hr 19 min 09 sec)
Heartbeat CPU 0 instructions: 280000001 cycles: 76351064 heartbeat IPC: 3.667 cumulative IPC: 3.666 (Simulation time: 00 hr 19 min 50 sec)
Heartbeat CPU 0 instructions: 290000000 cycles: 79078305 heartbeat IPC: 3.667 cumulative IPC: 3.666 (Simulation time: 00 hr 20 min 31 sec)
Heartbeat CPU 0 instructions: 300000001 cycles: 81805608 heartbeat IPC: 3.667 cumulative IPC: 3.666 (Simulation time: 00 hr 21 min 12 sec)
Heartbeat CPU 0 instructions: 310000000 cycles: 84532850 heartbeat IPC: 3.667 cumulative IPC: 3.667 (Simulation time: 00 hr 21 min 56 sec)
Heartbeat CPU 0 instructions: 320000000 cycles: 87260527 heartbeat IPC: 3.666 cumulative IPC: 3.666 (Simulation time: 00 hr 22 min 39 sec)
Heartbeat CPU 0 instructions: 330000001 cycles: 89987823 heartbeat IPC: 3.667 cumulative IPC: 3.666 (Simulation time: 00 hr 23 min 20 sec)
Heartbeat CPU 0 instructions: 340000002 cycles: 92715070 heartbeat IPC: 3.667 cumulative IPC: 3.667 (Simulation time: 00 hr 24 min 01 sec)
Heartbeat CPU 0 instructions: 350000003 cycles: 95442373 heartbeat IPC: 3.667 cumulative IPC: 3.667 (Simulation time: 00 hr 24 min 45 sec)
Heartbeat CPU 0 instructions: 360000001 cycles: 98169978 heartbeat IPC: 3.666 cumulative IPC: 3.666 (Simulation time: 00 hr 25 min 26 sec)
Heartbeat CPU 0 instructions: 370000002 cycles: 100897282 heartbeat IPC: 3.667 cumulative IPC: 3.667 (Simulation time: 00 hr 26 min 05 sec)
Heartbeat CPU 0 instructions: 380000001 cycles: 103624536 heartbeat IPC: 3.667 cumulative IPC: 3.667 (Simulation time: 00 hr 26 min 54 sec)
Heartbeat CPU 0 instructions: 390000004 cycles: 106351825 heartbeat IPC: 3.667 cumulative IPC: 3.667 (Simulation time: 00 hr 28 min 04 sec)
Heartbeat CPU 0 instructions: 400000000 cycles: 109079125 heartbeat IPC: 3.667 cumulative IPC: 3.667 (Simulation time: 00 hr 29 min 10 sec)
Heartbeat CPU 0 instructions: 410000003 cycles: 111806743 heartbeat IPC: 3.666 cumulative IPC: 3.667 (Simulation time: 00 hr 30 min 13 sec)
Heartbeat CPU 0 instructions: 420000003 cycles: 123506241 heartbeat IPC: 0.8547 cumulative IPC: 3.367 (Simulation time: 00 hr 32 min 49 sec)
Heartbeat CPU 0 instructions: 430000003 cycles: 151960586 heartbeat IPC: 0.3514 cumulative IPC: 2.747 (Simulation time: 00 hr 38 min 04 sec)
Heartbeat CPU 0 instructions: 440000000 cycles: 179560625 heartbeat IPC: 0.3623 cumulative IPC: 2.35 (Simulation time: 00 hr 43 min 02 sec)
Heartbeat CPU 0 instructions: 450000000 cycles: 207136760 heartbeat IPC: 0.3626 cumulative IPC: 2.067 (Simulation time: 00 hr 47 min 52 sec)
Heartbeat CPU 0 instructions: 460000002 cycles: 234685702 heartbeat IPC: 0.363 cumulative IPC: 1.855 (Simulation time: 00 hr 52 min 38 sec)
Heartbeat CPU 0 instructions: 470000003 cycles: 262283499 heartbeat IPC: 0.3623 cumulative IPC: 1.689 (Simulation time: 00 hr 57 min 01 sec)
Heartbeat CPU 0 instructions: 480000004 cycles: 289831283 heartbeat IPC: 0.363 cumulative IPC: 1.557 (Simulation time: 01 hr 01 min 17 sec)
Heartbeat CPU 0 instructions: 490000000 cycles: 317396056 heartbeat IPC: 0.3628 cumulative IPC: 1.448 (Simulation time: 01 hr 05 min 29 sec)
Heartbeat CPU 0 instructions: 500000001 cycles: 345013363 heartbeat IPC: 0.3621 cumulative IPC: 1.358 (Simulation time: 01 hr 09 min 37 sec)
Heartbeat CPU 0 instructions: 510000002 cycles: 372521120 heartbeat IPC: 0.3635 cumulative IPC: 1.282 (Simulation time: 01 hr 13 min 46 sec)
Heartbeat CPU 0 instructions: 520000003 cycles: 400091588 heartbeat IPC: 0.3627 cumulative IPC: 1.216 (Simulation time: 01 hr 17 min 25 sec)
Heartbeat CPU 0 instructions: 530000004 cycles: 427494277 heartbeat IPC: 0.3649 cumulative IPC: 1.16 (Simulation time: 01 hr 20 min 29 sec)
Heartbeat CPU 0 instructions: 540000000 cycles: 455024571 heartbeat IPC: 0.3632 cumulative IPC: 1.11 (Simulation time: 01 hr 23 min 51 sec)
Heartbeat CPU 0 instructions: 550000000 cycles: 482543225 heartbeat IPC: 0.3634 cumulative IPC: 1.066 (Simulation time: 01 hr 27 min 17 sec)
Heartbeat CPU 0 instructions: 560000002 cycles: 510041224 heartbeat IPC: 0.3637 cumulative IPC: 1.027 (Simulation time: 01 hr 30 min 35 sec)
Heartbeat CPU 0 instructions: 570000002 cycles: 537699534 heartbeat IPC: 0.3616 cumulative IPC: 0.9922 (Simulation time: 01 hr 33 min 44 sec)
Heartbeat CPU 0 instructions: 580000000 cycles: 565217618 heartbeat IPC: 0.3634 cumulative IPC: 0.9608 (Simulation time: 01 hr 37 min 08 sec)
Heartbeat CPU 0 instructions: 590000004 cycles: 592762979 heartbeat IPC: 0.363 cumulative IPC: 0.9324 (Simulation time: 01 hr 41 min 30 sec)
*** Reached end of trace: (0, "traces/l1l2l3cache.champsimtrace")
Heartbeat CPU 0 instructions: 600000001 cycles: 620334266 heartbeat IPC: 0.3627 cumulative IPC: 0.9065 (Simulation time: 01 hr 45 min 00 sec)
Heartbeat CPU 0 instructions: 610000002 cycles: 631270970 heartbeat IPC: 0.9144 cumulative IPC: 0.9067 (Simulation time: 01 hr 46 min 24 sec)
Heartbeat CPU 0 instructions: 620000001 cycles: 646845289 heartbeat IPC: 0.6421 cumulative IPC: 0.9002 (Simulation time: 01 hr 48 min 17 sec)
Heartbeat CPU 0 instructions: 630000002 cycles: 662360418 heartbeat IPC: 0.6445 cumulative IPC: 0.894 (Simulation time: 01 hr 49 min 59 sec)
Heartbeat CPU 0 instructions: 640000000 cycles: 669697505 heartbeat IPC: 1.363 cumulative IPC: 0.8993 (Simulation time: 01 hr 50 min 50 sec)
Heartbeat CPU 0 instructions: 650000003 cycles: 672425202 heartbeat IPC: 3.666 cumulative IPC: 0.9107 (Simulation time: 01 hr 51 min 15 sec)
Simulation finished CPU 0 instructions: 600000000 cycles: 658804601 cumulative IPC: 0.9107 (Simulation time: 01 hr 51 min 15 sec)
Simulation complete CPU 0 instructions: 600000000 cycles: 658804601 cumulative IPC: 0.9107 (Simulation time: 01 hr 51 min 15 sec)

ChampSim completed all CPUs

=== Simulation ===
CPU 0 runs traces/l1l2l3cache.champsimtrace
Region of Interest Statistics

CPU 0 cumulative IPC: 0.9107 instructions: 600000000 cycles: 658804601
CPU 0 Branch Prediction Accuracy: 99.34% MPKI: 1.413 Average ROB Occupancy at Mispredict: 144.3
Branch type MPKI
BRANCH_DIRECT_JUMP: 8.5e-05
BRANCH_INDIRECT: 0.000237
BRANCH_CONDITIONAL: 1.41
BRANCH_DIRECT_CALL: 5e-06
BRANCH_INDIRECT_CALL: 4.67e-05
BRANCH_RETURN: 3.67e-05

LLC TOTAL        ACCESS:    5043909 HIT:     938899 MISS:    4105010
LLC LOAD         ACCESS:    1954442 HIT:     186527 MISS:    1767915
LLC RFO          ACCESS:     561711 HIT:       1291 MISS:     560420
LLC PREFETCH     ACCESS:    1954442 HIT:     183988 MISS:    1770454
LLC WRITE        ACCESS:     562066 HIT:     561917 MISS:        149
LLC TRANSLATION  ACCESS:      11248 HIT:       5176 MISS:       6072
LLC PREFETCH REQUESTED:    1954442 ISSUED:    1954442 USEFUL:     103994 USELESS:    1665084
LLC AVERAGE MISS LATENCY: 1016 cycles
cpu0_DTLB TOTAL        ACCESS:  131651899 HIT:  129636986 MISS:    2014913
cpu0_DTLB LOAD         ACCESS:  131651899 HIT:  129636986 MISS:    2014913
cpu0_DTLB RFO          ACCESS:          0 HIT:          0 MISS:          0
cpu0_DTLB PREFETCH     ACCESS:          0 HIT:          0 MISS:          0
cpu0_DTLB WRITE        ACCESS:          0 HIT:          0 MISS:          0
cpu0_DTLB TRANSLATION  ACCESS:          0 HIT:          0 MISS:          0
cpu0_DTLB PREFETCH REQUESTED:          0 ISSUED:          0 USEFUL:          0 USELESS:          0
cpu0_DTLB AVERAGE MISS LATENCY: 19.64 cycles
cpu0_ITLB TOTAL        ACCESS:       4992 HIT:       4771 MISS:        221
cpu0_ITLB LOAD         ACCESS:       4992 HIT:       4771 MISS:        221
cpu0_ITLB RFO          ACCESS:          0 HIT:          0 MISS:          0
cpu0_ITLB PREFETCH     ACCESS:          0 HIT:          0 MISS:          0
cpu0_ITLB WRITE        ACCESS:          0 HIT:          0 MISS:          0
cpu0_ITLB TRANSLATION  ACCESS:          0 HIT:          0 MISS:          0
cpu0_ITLB PREFETCH REQUESTED:          0 ISSUED:          0 USEFUL:          0 USELESS:          0
cpu0_ITLB AVERAGE MISS LATENCY: 246.9 cycles
cpu0_L1D TOTAL        ACCESS:  179345583 HIT:  167766075 MISS:   11579508
cpu0_L1D LOAD         ACCESS:   71051180 HIT:   69007786 MISS:    2043394
cpu0_L1D RFO          ACCESS:          0 HIT:          0 MISS:          0
cpu0_L1D PREFETCH     ACCESS:          0 HIT:          0 MISS:          0
cpu0_L1D WRITE        ACCESS:  106988903 HIT:   98199064 MISS:    8789839
cpu0_L1D TRANSLATION  ACCESS:    1305500 HIT:     559225 MISS:     746275
cpu0_L1D PREFETCH REQUESTED:          0 ISSUED:          0 USEFUL:          0 USELESS:          0
cpu0_L1D AVERAGE MISS LATENCY: 190.4 cycles
cpu0_L1I TOTAL        ACCESS:       5693 HIT:       3421 MISS:       2272
cpu0_L1I LOAD         ACCESS:       5693 HIT:       3421 MISS:       2272
cpu0_L1I RFO          ACCESS:          0 HIT:          0 MISS:          0
cpu0_L1I PREFETCH     ACCESS:          0 HIT:          0 MISS:          0
cpu0_L1I WRITE        ACCESS:          0 HIT:          0 MISS:          0
cpu0_L1I TRANSLATION  ACCESS:          0 HIT:          0 MISS:          0
cpu0_L1I PREFETCH REQUESTED:          0 ISSUED:          0 USEFUL:          0 USELESS:          0
cpu0_L1I AVERAGE MISS LATENCY: 249 cycles
cpu0_L2C TOTAL        ACCESS:    3903907 HIT:    1376487 MISS:    2527420
cpu0_L2C LOAD         ACCESS:    2009353 HIT:      54911 MISS:    1954442
cpu0_L2C RFO          ACCESS:     573612 HIT:      11901 MISS:     561711
cpu0_L2C PREFETCH     ACCESS:          0 HIT:          0 MISS:          0
cpu0_L2C WRITE        ACCESS:     574685 HIT:     574666 MISS:         19
cpu0_L2C TRANSLATION  ACCESS:     746257 HIT:     735009 MISS:      11248
cpu0_L2C PREFETCH REQUESTED:          0 ISSUED:          0 USEFUL:          0 USELESS:          0
cpu0_L2C AVERAGE MISS LATENCY: 898 cycles
cpu0_STLB TOTAL        ACCESS:    1982677 HIT:     677185 MISS:    1305492
cpu0_STLB LOAD         ACCESS:    1982677 HIT:     677185 MISS:    1305492
cpu0_STLB RFO          ACCESS:          0 HIT:          0 MISS:          0
cpu0_STLB PREFETCH     ACCESS:          0 HIT:          0 MISS:          0
cpu0_STLB WRITE        ACCESS:          0 HIT:          0 MISS:          0
cpu0_STLB TRANSLATION  ACCESS:          0 HIT:          0 MISS:          0
cpu0_STLB PREFETCH REQUESTED:          0 ISSUED:          0 USEFUL:          0 USELESS:          0
cpu0_STLB AVERAGE MISS LATENCY: 17.27 cycles

DRAM Statistics

Channel 0 RQ ROW_BUFFER_HIT:     116383
  ROW_BUFFER_MISS:    3984287
 AVG DBUS CONGESTED CYCLE: 3.973
WQ ROW_BUFFER_HIT: Channel 0 
  ROW_BUFFER_MISS:     151896
  FULL:     410068
