WARNING: physical memory size is smaller than virtual memory size.

*** ChampSim Multicore Out-of-Order Simulator ***
Warmup Instructions: 50000000
Simulation Instructions: 600000000
Number of CPUs: 1
Page size: 4096

Off-chip DRAM Size: 4 GiB Channels: 1 Width: 64-bit Data Race: 3200 MT/s
Heartbeat CPU 0 instructions: 10000002 cycles: 2565786 heartbeat IPC: 3.897 cumulative IPC: 3.897 (Simulation time: 00 hr 00 min 53 sec)
Heartbeat CPU 0 instructions: 20000000 cycles: 5131275 heartbeat IPC: 3.898 cumulative IPC: 3.898 (Simulation time: 00 hr 01 min 46 sec)
Heartbeat CPU 0 instructions: 30000000 cycles: 7631275 heartbeat IPC: 4 cumulative IPC: 3.931 (Simulation time: 00 hr 02 min 37 sec)
Heartbeat CPU 0 instructions: 40000000 cycles: 10131275 heartbeat IPC: 4 cumulative IPC: 3.948 (Simulation time: 00 hr 03 min 25 sec)
Heartbeat CPU 0 instructions: 50000000 cycles: 12631275 heartbeat IPC: 4 cumulative IPC: 3.958 (Simulation time: 00 hr 04 min 14 sec)
Warmup finished CPU 0 instructions: 50000000 cycles: 12631276 cumulative IPC: 3.958 (Simulation time: 00 hr 04 min 14 sec)
Warmup complete CPU 0 instructions: 50000000 cycles: 12631276 cumulative IPC: 3.958 (Simulation time: 00 hr 04 min 14 sec)
Heartbeat CPU 0 instructions: 60000000 cycles: 16058853 heartbeat IPC: 2.918 cumulative IPC: 2.918 (Simulation time: 00 hr 05 min 11 sec)
Heartbeat CPU 0 instructions: 70000000 cycles: 19488287 heartbeat IPC: 2.916 cumulative IPC: 2.917 (Simulation time: 00 hr 06 min 10 sec)
Heartbeat CPU 0 instructions: 80000004 cycles: 22914705 heartbeat IPC: 2.919 cumulative IPC: 2.917 (Simulation time: 00 hr 07 min 12 sec)
Heartbeat CPU 0 instructions: 90000000 cycles: 26342393 heartbeat IPC: 2.917 cumulative IPC: 2.917 (Simulation time: 00 hr 08 min 07 sec)
Heartbeat CPU 0 instructions: 100000003 cycles: 29773620 heartbeat IPC: 2.914 cumulative IPC: 2.917 (Simulation time: 00 hr 09 min 06 sec)
Heartbeat CPU 0 instructions: 110000000 cycles: 33199685 heartbeat IPC: 2.919 cumulative IPC: 2.917 (Simulation time: 00 hr 10 min 04 sec)
Heartbeat CPU 0 instructions: 120000001 cycles: 36624208 heartbeat IPC: 2.92 cumulative IPC: 2.918 (Simulation time: 00 hr 11 min 02 sec)
Heartbeat CPU 0 instructions: 130000001 cycles: 40050789 heartbeat IPC: 2.918 cumulative IPC: 2.918 (Simulation time: 00 hr 11 min 55 sec)
Heartbeat CPU 0 instructions: 140000002 cycles: 43477137 heartbeat IPC: 2.919 cumulative IPC: 2.918 (Simulation time: 00 hr 12 min 54 sec)
Heartbeat CPU 0 instructions: 150000000 cycles: 46902216 heartbeat IPC: 2.92 cumulative IPC: 2.918 (Simulation time: 00 hr 13 min 53 sec)
Heartbeat CPU 0 instructions: 160000002 cycles: 50328723 heartbeat IPC: 2.918 cumulative IPC: 2.918 (Simulation time: 00 hr 14 min 49 sec)
Heartbeat CPU 0 instructions: 170000000 cycles: 53756210 heartbeat IPC: 2.918 cumulative IPC: 2.918 (Simulation time: 00 hr 15 min 45 sec)
Heartbeat CPU 0 instructions: 180000004 cycles: 57182236 heartbeat IPC: 2.919 cumulative IPC: 2.918 (Simulation time: 00 hr 16 min 44 sec)
Heartbeat CPU 0 instructions: 190000001 cycles: 60608943 heartbeat IPC: 2.918 cumulative IPC: 2.918 (Simulation time: 00 hr 17 min 47 sec)
Heartbeat CPU 0 instructions: 200000001 cycles: 64034699 heartbeat IPC: 2.919 cumulative IPC: 2.918 (Simulation time: 00 hr 18 min 47 sec)
Heartbeat CPU 0 instructions: 210000004 cycles: 67460594 heartbeat IPC: 2.919 cumulative IPC: 2.918 (Simulation time: 00 hr 19 min 46 sec)
Heartbeat CPU 0 instructions: 220000002 cycles: 70888100 heartbeat IPC: 2.918 cumulative IPC: 2.918 (Simulation time: 00 hr 20 min 46 sec)
Heartbeat CPU 0 instructions: 230000001 cycles: 74517534 heartbeat IPC: 2.755 cumulative IPC: 2.909 (Simulation time: 00 hr 21 min 55 sec)
Heartbeat CPU 0 instructions: 240000003 cycles: 79756381 heartbeat IPC: 1.909 cumulative IPC: 2.831 (Simulation time: 00 hr 23 min 22 sec)
Heartbeat CPU 0 instructions: 250000003 cycles: 83190056 heartbeat IPC: 2.912 cumulative IPC: 2.835 (Simulation time: 00 hr 24 min 16 sec)
Heartbeat CPU 0 instructions: 260000000 cycles: 86616794 heartbeat IPC: 2.918 cumulative IPC: 2.838 (Simulation time: 00 hr 25 min 11 sec)
Heartbeat CPU 0 instructions: 270000004 cycles: 90042789 heartbeat IPC: 2.919 cumulative IPC: 2.842 (Simulation time: 00 hr 26 min 06 sec)
Heartbeat CPU 0 instructions: 280000000 cycles: 93470616 heartbeat IPC: 2.917 cumulative IPC: 2.845 (Simulation time: 00 hr 27 min 00 sec)
Heartbeat CPU 0 instructions: 290000002 cycles: 96898751 heartbeat IPC: 2.917 cumulative IPC: 2.848 (Simulation time: 00 hr 27 min 55 sec)
Heartbeat CPU 0 instructions: 300000004 cycles: 100322317 heartbeat IPC: 2.921 cumulative IPC: 2.851 (Simulation time: 00 hr 28 min 49 sec)
Heartbeat CPU 0 instructions: 310000002 cycles: 103750440 heartbeat IPC: 2.917 cumulative IPC: 2.853 (Simulation time: 00 hr 29 min 45 sec)
Heartbeat CPU 0 instructions: 320000000 cycles: 107178250 heartbeat IPC: 2.917 cumulative IPC: 2.856 (Simulation time: 00 hr 30 min 40 sec)
Heartbeat CPU 0 instructions: 330000004 cycles: 110604999 heartbeat IPC: 2.918 cumulative IPC: 2.858 (Simulation time: 00 hr 31 min 37 sec)
Heartbeat CPU 0 instructions: 340000000 cycles: 114032256 heartbeat IPC: 2.918 cumulative IPC: 2.86 (Simulation time: 00 hr 32 min 36 sec)
Heartbeat CPU 0 instructions: 350000003 cycles: 117461177 heartbeat IPC: 2.916 cumulative IPC: 2.862 (Simulation time: 00 hr 33 min 32 sec)
Heartbeat CPU 0 instructions: 360000003 cycles: 120888825 heartbeat IPC: 2.917 cumulative IPC: 2.864 (Simulation time: 00 hr 34 min 27 sec)
Heartbeat CPU 0 instructions: 370000004 cycles: 124315217 heartbeat IPC: 2.919 cumulative IPC: 2.865 (Simulation time: 00 hr 35 min 11 sec)
Heartbeat CPU 0 instructions: 380000003 cycles: 127740751 heartbeat IPC: 2.919 cumulative IPC: 2.867 (Simulation time: 00 hr 35 min 52 sec)
Heartbeat CPU 0 instructions: 390000000 cycles: 131161730 heartbeat IPC: 2.923 cumulative IPC: 2.868 (Simulation time: 00 hr 36 min 43 sec)
Heartbeat CPU 0 instructions: 400000002 cycles: 134589110 heartbeat IPC: 2.918 cumulative IPC: 2.87 (Simulation time: 00 hr 38 min 11 sec)
Heartbeat CPU 0 instructions: 410000003 cycles: 138016606 heartbeat IPC: 2.918 cumulative IPC: 2.871 (Simulation time: 00 hr 39 min 34 sec)
Heartbeat CPU 0 instructions: 420000001 cycles: 141444434 heartbeat IPC: 2.917 cumulative IPC: 2.872 (Simulation time: 00 hr 40 min 24 sec)
Heartbeat CPU 0 instructions: 430000001 cycles: 144873184 heartbeat IPC: 2.917 cumulative IPC: 2.874 (Simulation time: 00 hr 41 min 03 sec)
Heartbeat CPU 0 instructions: 440000002 cycles: 148297744 heartbeat IPC: 2.92 cumulative IPC: 2.875 (Simulation time: 00 hr 41 min 43 sec)
Heartbeat CPU 0 instructions: 450000001 cycles: 151755862 heartbeat IPC: 2.892 cumulative IPC: 2.875 (Simulation time: 00 hr 42 min 27 sec)
Heartbeat CPU 0 instructions: 460000002 cycles: 156993511 heartbeat IPC: 1.909 cumulative IPC: 2.84 (Simulation time: 00 hr 43 min 30 sec)
Heartbeat CPU 0 instructions: 470000004 cycles: 160416821 heartbeat IPC: 2.921 cumulative IPC: 2.842 (Simulation time: 00 hr 44 min 09 sec)
Heartbeat CPU 0 instructions: 480000000 cycles: 163845048 heartbeat IPC: 2.917 cumulative IPC: 2.844 (Simulation time: 00 hr 44 min 50 sec)
Heartbeat CPU 0 instructions: 490000000 cycles: 167270423 heartbeat IPC: 2.919 cumulative IPC: 2.845 (Simulation time: 00 hr 45 min 30 sec)
Heartbeat CPU 0 instructions: 500000002 cycles: 170697185 heartbeat IPC: 2.918 cumulative IPC: 2.847 (Simulation time: 00 hr 46 min 10 sec)
Heartbeat CPU 0 instructions: 510000001 cycles: 174126118 heartbeat IPC: 2.916 cumulative IPC: 2.848 (Simulation time: 00 hr 46 min 49 sec)
Heartbeat CPU 0 instructions: 520000003 cycles: 177551449 heartbeat IPC: 2.919 cumulative IPC: 2.85 (Simulation time: 00 hr 47 min 29 sec)
Heartbeat CPU 0 instructions: 530000002 cycles: 180975319 heartbeat IPC: 2.921 cumulative IPC: 2.851 (Simulation time: 00 hr 48 min 08 sec)
Heartbeat CPU 0 instructions: 540000000 cycles: 184404018 heartbeat IPC: 2.917 cumulative IPC: 2.853 (Simulation time: 00 hr 48 min 48 sec)
Heartbeat CPU 0 instructions: 550000000 cycles: 187830259 heartbeat IPC: 2.919 cumulative IPC: 2.854 (Simulation time: 00 hr 49 min 27 sec)
Heartbeat CPU 0 instructions: 560000001 cycles: 191255008 heartbeat IPC: 2.92 cumulative IPC: 2.855 (Simulation time: 00 hr 50 min 06 sec)
Heartbeat CPU 0 instructions: 570000001 cycles: 194680490 heartbeat IPC: 2.919 cumulative IPC: 2.856 (Simulation time: 00 hr 50 min 46 sec)
Heartbeat CPU 0 instructions: 580000000 cycles: 198110279 heartbeat IPC: 2.916 cumulative IPC: 2.857 (Simulation time: 00 hr 51 min 25 sec)
Heartbeat CPU 0 instructions: 590000003 cycles: 201536664 heartbeat IPC: 2.919 cumulative IPC: 2.859 (Simulation time: 00 hr 52 min 05 sec)
*** Reached end of trace: (0, "traces/l1l2cache.champsimtrace")
Heartbeat CPU 0 instructions: 600000001 cycles: 204964800 heartbeat IPC: 2.917 cumulative IPC: 2.86 (Simulation time: 00 hr 52 min 44 sec)
Heartbeat CPU 0 instructions: 610000000 cycles: 207984943 heartbeat IPC: 3.311 cumulative IPC: 2.867 (Simulation time: 00 hr 53 min 25 sec)
Heartbeat CPU 0 instructions: 620000004 cycles: 210740250 heartbeat IPC: 3.629 cumulative IPC: 2.877 (Simulation time: 00 hr 54 min 06 sec)
Heartbeat CPU 0 instructions: 630000004 cycles: 214163326 heartbeat IPC: 2.921 cumulative IPC: 2.878 (Simulation time: 00 hr 54 min 45 sec)
Heartbeat CPU 0 instructions: 640000000 cycles: 217588254 heartbeat IPC: 2.92 cumulative IPC: 2.879 (Simulation time: 00 hr 55 min 24 sec)
Heartbeat CPU 0 instructions: 650000004 cycles: 221017658 heartbeat IPC: 2.916 cumulative IPC: 2.879 (Simulation time: 00 hr 56 min 03 sec)
Simulation finished CPU 0 instructions: 600000004 cycles: 208386383 cumulative IPC: 2.879 (Simulation time: 00 hr 56 min 03 sec)
Simulation complete CPU 0 instructions: 600000004 cycles: 208386383 cumulative IPC: 2.879 (Simulation time: 00 hr 56 min 03 sec)

ChampSim completed all CPUs

=== Simulation ===
CPU 0 runs traces/l1l2cache.champsimtrace
Region of Interest Statistics

CPU 0 cumulative IPC: 2.879 instructions: 600000004 cycles: 208386383
CPU 0 Branch Prediction Accuracy: 93.04% MPKI: 5.913 Average ROB Occupancy at Mispredict: 67.85
Branch type MPKI
BRANCH_DIRECT_JUMP: 9.5e-05
BRANCH_INDIRECT: 0.000282
BRANCH_CONDITIONAL: 5.91
BRANCH_DIRECT_CALL: 3.33e-06
BRANCH_INDIRECT_CALL: 4.83e-05
BRANCH_RETURN: 3.33e-05

LLC TOTAL        ACCESS:     319106 HIT:     165124 MISS:     153982
LLC LOAD         ACCESS:      59446 HIT:      38477 MISS:      20969
LLC RFO          ACCESS:      99912 HIT:      44710 MISS:      55202
LLC PREFETCH     ACCESS:      59446 HIT:      32673 MISS:      26773
LLC WRITE        ACCESS:     100297 HIT:      49263 MISS:      51034
LLC TRANSLATION  ACCESS:          5 HIT:          1 MISS:          4
LLC PREFETCH REQUESTED:      59446 ISSUED:      59446 USEFUL:      26164 USELESS:        195
LLC AVERAGE MISS LATENCY: 280.8 cycles
cpu0_DTLB TOTAL        ACCESS:   82341074 HIT:   82330249 MISS:      10825
cpu0_DTLB LOAD         ACCESS:   82341074 HIT:   82330249 MISS:      10825
cpu0_DTLB RFO          ACCESS:          0 HIT:          0 MISS:          0
cpu0_DTLB PREFETCH     ACCESS:          0 HIT:          0 MISS:          0
cpu0_DTLB WRITE        ACCESS:          0 HIT:          0 MISS:          0
cpu0_DTLB TRANSLATION  ACCESS:          0 HIT:          0 MISS:          0
cpu0_DTLB PREFETCH REQUESTED:          0 ISSUED:          0 USEFUL:          0 USELESS:          0
cpu0_DTLB AVERAGE MISS LATENCY: 5.866 cycles
cpu0_ITLB TOTAL        ACCESS:       5550 HIT:       5332 MISS:        218
cpu0_ITLB LOAD         ACCESS:       5550 HIT:       5332 MISS:        218
cpu0_ITLB RFO          ACCESS:          0 HIT:          0 MISS:          0
cpu0_ITLB PREFETCH     ACCESS:          0 HIT:          0 MISS:          0
cpu0_ITLB WRITE        ACCESS:          0 HIT:          0 MISS:          0
cpu0_ITLB TRANSLATION  ACCESS:          0 HIT:          0 MISS:          0
cpu0_ITLB PREFETCH REQUESTED:          0 ISSUED:          0 USEFUL:          0 USELESS:          0
cpu0_ITLB AVERAGE MISS LATENCY: 6.459 cycles
cpu0_L1D TOTAL        ACCESS:  104590769 HIT:  102800872 MISS:    1789897
cpu0_L1D LOAD         ACCESS:   45398168 HIT:   44929641 MISS:     468527
cpu0_L1D RFO          ACCESS:          0 HIT:          0 MISS:          0
cpu0_L1D PREFETCH     ACCESS:          0 HIT:          0 MISS:          0
cpu0_L1D WRITE        ACCESS:   59192343 HIT:   57870978 MISS:    1321365
cpu0_L1D TRANSLATION  ACCESS:        258 HIT:        253 MISS:          5
cpu0_L1D PREFETCH REQUESTED:          0 ISSUED:          0 USEFUL:          0 USELESS:          0
cpu0_L1D AVERAGE MISS LATENCY: 20.79 cycles
cpu0_L1I TOTAL        ACCESS:       6313 HIT:       4056 MISS:       2257
cpu0_L1I LOAD         ACCESS:       6313 HIT:       4056 MISS:       2257
cpu0_L1I RFO          ACCESS:          0 HIT:          0 MISS:          0
cpu0_L1I PREFETCH     ACCESS:          0 HIT:          0 MISS:          0
cpu0_L1I WRITE        ACCESS:          0 HIT:          0 MISS:          0
cpu0_L1I TRANSLATION  ACCESS:          0 HIT:          0 MISS:          0
cpu0_L1I PREFETCH REQUESTED:          0 ISSUED:          0 USEFUL:          0 USELESS:          0
cpu0_L1I AVERAGE MISS LATENCY: 93.56 cycles
cpu0_L2C TOTAL        ACCESS:     265739 HIT:     106356 MISS:     159383
cpu0_L2C LOAD         ACCESS:      63737 HIT:       4291 MISS:      59446
cpu0_L2C RFO          ACCESS:     100738 HIT:        826 MISS:      99912
cpu0_L2C PREFETCH     ACCESS:          0 HIT:          0 MISS:          0
cpu0_L2C WRITE        ACCESS:     101259 HIT:     101239 MISS:         20
cpu0_L2C TRANSLATION  ACCESS:          5 HIT:          0 MISS:          5
cpu0_L2C PREFETCH REQUESTED:          0 ISSUED:          0 USEFUL:          0 USELESS:          0
cpu0_L2C AVERAGE MISS LATENCY: 268.1 cycles
cpu0_STLB TOTAL        ACCESS:       3914 HIT:       3657 MISS:        257
cpu0_STLB LOAD         ACCESS:       3914 HIT:       3657 MISS:        257
cpu0_STLB RFO          ACCESS:          0 HIT:          0 MISS:          0
cpu0_STLB PREFETCH     ACCESS:          0 HIT:          0 MISS:          0
cpu0_STLB WRITE        ACCESS:          0 HIT:          0 MISS:          0
cpu0_STLB TRANSLATION  ACCESS:          0 HIT:          0 MISS:          0
cpu0_STLB PREFETCH REQUESTED:          0 ISSUED:          0 USEFUL:          0 USELESS:          0
cpu0_STLB AVERAGE MISS LATENCY: 216.5 cycles

DRAM Statistics

Channel 0 RQ ROW_BUFFER_HIT:      46035
  ROW_BUFFER_MISS:      36230
 AVG DBUS CONGESTED CYCLE: 3.963
WQ ROW_BUFFER_HIT: Channel 0 
  ROW_BUFFER_MISS:      26440
  FULL:      25198
