WARNING: physical memory size is smaller than virtual memory size.

*** ChampSim Multicore Out-of-Order Simulator ***
Warmup Instructions: 50000000
Simulation Instructions: 600000000
Number of CPUs: 1
Page size: 4096

Off-chip DRAM Size: 4 GiB Channels: 1 Width: 64-bit Data Race: 3200 MT/s
Heartbeat CPU 0 instructions: 10000004 cycles: 2777663 heartbeat IPC: 3.6 cumulative IPC: 3.6 (Simulation time: 00 hr 00 min 56 sec)
Heartbeat CPU 0 instructions: 20000001 cycles: 5634805 heartbeat IPC: 3.5 cumulative IPC: 3.549 (Simulation time: 00 hr 01 min 56 sec)
Heartbeat CPU 0 instructions: 30000000 cycles: 8491948 heartbeat IPC: 3.5 cumulative IPC: 3.533 (Simulation time: 00 hr 02 min 56 sec)
Heartbeat CPU 0 instructions: 40000002 cycles: 11120600 heartbeat IPC: 3.804 cumulative IPC: 3.597 (Simulation time: 00 hr 03 min 51 sec)
Heartbeat CPU 0 instructions: 50000002 cycles: 13620600 heartbeat IPC: 4 cumulative IPC: 3.671 (Simulation time: 00 hr 04 min 43 sec)
Warmup finished CPU 0 instructions: 50000002 cycles: 13620601 cumulative IPC: 3.671 (Simulation time: 00 hr 04 min 43 sec)
Warmup complete CPU 0 instructions: 50000002 cycles: 13620601 cumulative IPC: 3.671 (Simulation time: 00 hr 04 min 43 sec)
Heartbeat CPU 0 instructions: 60000002 cycles: 16347845 heartbeat IPC: 3.667 cumulative IPC: 3.667 (Simulation time: 00 hr 05 min 45 sec)
Heartbeat CPU 0 instructions: 70000001 cycles: 19075145 heartbeat IPC: 3.667 cumulative IPC: 3.667 (Simulation time: 00 hr 06 min 48 sec)
Heartbeat CPU 0 instructions: 80000001 cycles: 21802387 heartbeat IPC: 3.667 cumulative IPC: 3.667 (Simulation time: 00 hr 07 min 55 sec)
Heartbeat CPU 0 instructions: 90000000 cycles: 24530053 heartbeat IPC: 3.666 cumulative IPC: 3.667 (Simulation time: 00 hr 08 min 59 sec)
Heartbeat CPU 0 instructions: 100000003 cycles: 27257296 heartbeat IPC: 3.667 cumulative IPC: 3.667 (Simulation time: 00 hr 09 min 58 sec)
Heartbeat CPU 0 instructions: 110000004 cycles: 29984599 heartbeat IPC: 3.667 cumulative IPC: 3.667 (Simulation time: 00 hr 11 min 01 sec)
Heartbeat CPU 0 instructions: 120000003 cycles: 32711869 heartbeat IPC: 3.667 cumulative IPC: 3.667 (Simulation time: 00 hr 12 min 00 sec)
Heartbeat CPU 0 instructions: 130000003 cycles: 35439142 heartbeat IPC: 3.667 cumulative IPC: 3.667 (Simulation time: 00 hr 12 min 58 sec)
Heartbeat CPU 0 instructions: 140000002 cycles: 38167610 heartbeat IPC: 3.665 cumulative IPC: 3.666 (Simulation time: 00 hr 13 min 58 sec)
Heartbeat CPU 0 instructions: 150000000 cycles: 40894853 heartbeat IPC: 3.667 cumulative IPC: 3.666 (Simulation time: 00 hr 15 min 01 sec)
Heartbeat CPU 0 instructions: 160000001 cycles: 43622157 heartbeat IPC: 3.667 cumulative IPC: 3.666 (Simulation time: 00 hr 16 min 17 sec)
Heartbeat CPU 0 instructions: 170000004 cycles: 46349398 heartbeat IPC: 3.667 cumulative IPC: 3.666 (Simulation time: 00 hr 17 min 56 sec)
Heartbeat CPU 0 instructions: 180000000 cycles: 49077199 heartbeat IPC: 3.666 cumulative IPC: 3.666 (Simulation time: 00 hr 19 min 08 sec)
Heartbeat CPU 0 instructions: 190000004 cycles: 51805058 heartbeat IPC: 3.666 cumulative IPC: 3.666 (Simulation time: 00 hr 20 min 11 sec)
Heartbeat CPU 0 instructions: 200000002 cycles: 54532316 heartbeat IPC: 3.667 cumulative IPC: 3.666 (Simulation time: 00 hr 21 min 16 sec)
Heartbeat CPU 0 instructions: 210000003 cycles: 57259619 heartbeat IPC: 3.667 cumulative IPC: 3.666 (Simulation time: 00 hr 22 min 21 sec)
Heartbeat CPU 0 instructions: 220000001 cycles: 59986861 heartbeat IPC: 3.667 cumulative IPC: 3.666 (Simulation time: 00 hr 23 min 22 sec)
Heartbeat CPU 0 instructions: 230000002 cycles: 62714537 heartbeat IPC: 3.666 cumulative IPC: 3.666 (Simulation time: 00 hr 24 min 21 sec)
Heartbeat CPU 0 instructions: 240000003 cycles: 65441779 heartbeat IPC: 3.667 cumulative IPC: 3.666 (Simulation time: 00 hr 25 min 21 sec)
Heartbeat CPU 0 instructions: 250000004 cycles: 68169082 heartbeat IPC: 3.667 cumulative IPC: 3.666 (Simulation time: 00 hr 26 min 19 sec)
Heartbeat CPU 0 instructions: 260000000 cycles: 70896365 heartbeat IPC: 3.667 cumulative IPC: 3.666 (Simulation time: 00 hr 27 min 23 sec)
Heartbeat CPU 0 instructions: 270000003 cycles: 73623983 heartbeat IPC: 3.666 cumulative IPC: 3.666 (Simulation time: 00 hr 28 min 25 sec)
Heartbeat CPU 0 instructions: 280000001 cycles: 76351284 heartbeat IPC: 3.667 cumulative IPC: 3.666 (Simulation time: 00 hr 29 min 25 sec)
Heartbeat CPU 0 instructions: 290000000 cycles: 79078525 heartbeat IPC: 3.667 cumulative IPC: 3.666 (Simulation time: 00 hr 30 min 27 sec)
Heartbeat CPU 0 instructions: 300000001 cycles: 81805828 heartbeat IPC: 3.667 cumulative IPC: 3.666 (Simulation time: 00 hr 31 min 26 sec)
Heartbeat CPU 0 instructions: 310000000 cycles: 84533070 heartbeat IPC: 3.667 cumulative IPC: 3.666 (Simulation time: 00 hr 32 min 28 sec)
Heartbeat CPU 0 instructions: 320000000 cycles: 87261914 heartbeat IPC: 3.665 cumulative IPC: 3.666 (Simulation time: 00 hr 33 min 30 sec)
Heartbeat CPU 0 instructions: 330000001 cycles: 89989210 heartbeat IPC: 3.667 cumulative IPC: 3.666 (Simulation time: 00 hr 34 min 30 sec)
Heartbeat CPU 0 instructions: 340000002 cycles: 92716457 heartbeat IPC: 3.667 cumulative IPC: 3.666 (Simulation time: 00 hr 35 min 31 sec)
Heartbeat CPU 0 instructions: 350000003 cycles: 95443760 heartbeat IPC: 3.667 cumulative IPC: 3.666 (Simulation time: 00 hr 36 min 32 sec)
Heartbeat CPU 0 instructions: 360000001 cycles: 98171364 heartbeat IPC: 3.666 cumulative IPC: 3.666 (Simulation time: 00 hr 37 min 33 sec)
Heartbeat CPU 0 instructions: 370000002 cycles: 100898668 heartbeat IPC: 3.667 cumulative IPC: 3.666 (Simulation time: 00 hr 38 min 55 sec)
Heartbeat CPU 0 instructions: 380000001 cycles: 103625922 heartbeat IPC: 3.667 cumulative IPC: 3.666 (Simulation time: 00 hr 40 min 28 sec)
Heartbeat CPU 0 instructions: 390000004 cycles: 106353211 heartbeat IPC: 3.667 cumulative IPC: 3.666 (Simulation time: 00 hr 42 min 48 sec)
Heartbeat CPU 0 instructions: 400000000 cycles: 109080511 heartbeat IPC: 3.667 cumulative IPC: 3.666 (Simulation time: 00 hr 44 min 58 sec)
Heartbeat CPU 0 instructions: 410000003 cycles: 111808320 heartbeat IPC: 3.666 cumulative IPC: 3.666 (Simulation time: 00 hr 47 min 05 sec)
Heartbeat CPU 0 instructions: 420000003 cycles: 119474450 heartbeat IPC: 1.304 cumulative IPC: 3.495 (Simulation time: 00 hr 50 min 59 sec)
Heartbeat CPU 0 instructions: 430000002 cycles: 138651393 heartbeat IPC: 0.5215 cumulative IPC: 3.039 (Simulation time: 01 hr 01 min 39 sec)
Heartbeat CPU 0 instructions: 440000004 cycles: 157626264 heartbeat IPC: 0.527 cumulative IPC: 2.708 (Simulation time: 01 hr 11 min 46 sec)
Heartbeat CPU 0 instructions: 450000000 cycles: 176587173 heartbeat IPC: 0.5274 cumulative IPC: 2.454 (Simulation time: 01 hr 22 min 44 sec)
Heartbeat CPU 0 instructions: 460000002 cycles: 195454172 heartbeat IPC: 0.53 cumulative IPC: 2.255 (Simulation time: 01 hr 32 min 10 sec)
Heartbeat CPU 0 instructions: 470000003 cycles: 214374430 heartbeat IPC: 0.5285 cumulative IPC: 2.092 (Simulation time: 01 hr 41 min 39 sec)
Heartbeat CPU 0 instructions: 480000003 cycles: 234024850 heartbeat IPC: 0.5089 cumulative IPC: 1.951 (Simulation time: 01 hr 52 min 24 sec)
Heartbeat CPU 0 instructions: 490000004 cycles: 252875894 heartbeat IPC: 0.5305 cumulative IPC: 1.839 (Simulation time: 02 hr 02 min 18 sec)
Heartbeat CPU 0 instructions: 500000003 cycles: 271673754 heartbeat IPC: 0.532 cumulative IPC: 1.744 (Simulation time: 02 hr 12 min 27 sec)
Heartbeat CPU 0 instructions: 510000002 cycles: 290426861 heartbeat IPC: 0.5332 cumulative IPC: 1.662 (Simulation time: 02 hr 22 min 26 sec)
Heartbeat CPU 0 instructions: 520000003 cycles: 309203423 heartbeat IPC: 0.5326 cumulative IPC: 1.59 (Simulation time: 02 hr 32 min 29 sec)
Heartbeat CPU 0 instructions: 530000004 cycles: 327900303 heartbeat IPC: 0.5348 cumulative IPC: 1.527 (Simulation time: 02 hr 42 min 28 sec)
Heartbeat CPU 0 instructions: 540000003 cycles: 346632468 heartbeat IPC: 0.5338 cumulative IPC: 1.471 (Simulation time: 02 hr 52 min 30 sec)
Heartbeat CPU 0 instructions: 550000000 cycles: 365420561 heartbeat IPC: 0.5323 cumulative IPC: 1.421 (Simulation time: 03 hr 03 min 31 sec)
Heartbeat CPU 0 instructions: 560000002 cycles: 384194665 heartbeat IPC: 0.5326 cumulative IPC: 1.376 (Simulation time: 03 hr 14 min 12 sec)
Heartbeat CPU 0 instructions: 570000002 cycles: 402980279 heartbeat IPC: 0.5323 cumulative IPC: 1.336 (Simulation time: 03 hr 25 min 19 sec)
Heartbeat CPU 0 instructions: 580000000 cycles: 421768547 heartbeat IPC: 0.5322 cumulative IPC: 1.299 (Simulation time: 03 hr 36 min 10 sec)
Heartbeat CPU 0 instructions: 590000000 cycles: 440533241 heartbeat IPC: 0.5329 cumulative IPC: 1.265 (Simulation time: 03 hr 47 min 04 sec)
*** Reached end of trace: (0, "traces/l1l2l3cache.champsimtrace")
Heartbeat CPU 0 instructions: 600000000 cycles: 459282387 heartbeat IPC: 0.5334 cumulative IPC: 1.234 (Simulation time: 03 hr 58 min 05 sec)
Heartbeat CPU 0 instructions: 610000004 cycles: 470210567 heartbeat IPC: 0.9151 cumulative IPC: 1.226 (Simulation time: 04 hr 03 min 02 sec)
Heartbeat CPU 0 instructions: 620000001 cycles: 485228068 heartbeat IPC: 0.6659 cumulative IPC: 1.209 (Simulation time: 04 hr 07 min 16 sec)
Heartbeat CPU 0 instructions: 630000000 cycles: 500195595 heartbeat IPC: 0.6681 cumulative IPC: 1.192 (Simulation time: 04 hr 09 min 38 sec)
Heartbeat CPU 0 instructions: 640000000 cycles: 507353044 heartbeat IPC: 1.397 cumulative IPC: 1.195 (Simulation time: 04 hr 10 min 53 sec)
Heartbeat CPU 0 instructions: 650000003 cycles: 510080690 heartbeat IPC: 3.666 cumulative IPC: 1.209 (Simulation time: 04 hr 11 min 34 sec)
Simulation finished CPU 0 instructions: 600000001 cycles: 496460090 cumulative IPC: 1.209 (Simulation time: 04 hr 11 min 34 sec)
Simulation complete CPU 0 instructions: 600000001 cycles: 496460090 cumulative IPC: 1.209 (Simulation time: 04 hr 11 min 34 sec)

ChampSim completed all CPUs

=== Simulation ===
CPU 0 runs traces/l1l2l3cache.champsimtrace
Region of Interest Statistics

CPU 0 cumulative IPC: 1.209 instructions: 600000001 cycles: 496460090
CPU 0 Branch Prediction Accuracy: 99.34% MPKI: 1.413 Average ROB Occupancy at Mispredict: 143.2
Branch type MPKI
BRANCH_DIRECT_JUMP: 8.5e-05
BRANCH_INDIRECT: 0.000237
BRANCH_CONDITIONAL: 1.41
BRANCH_DIRECT_CALL: 5e-06
BRANCH_INDIRECT_CALL: 4.67e-05
BRANCH_RETURN: 3.67e-05

LLC TOTAL        ACCESS:    3095800 HIT:     285708 MISS:    2810092
LLC LOAD         ACCESS:    1954444 HIT:     182451 MISS:    1771993
LLC RFO          ACCESS:     561712 HIT:      47111 MISS:     514601
LLC PREFETCH     ACCESS:       6333 HIT:       1694 MISS:       4639
LLC WRITE        ACCESS:     562064 HIT:      49086 MISS:     512978
LLC TRANSLATION  ACCESS:      11247 HIT:       5366 MISS:       5881
LLC PREFETCH REQUESTED:       6333 ISSUED:       6333 USEFUL:       2303 USELESS:        161
LLC AVERAGE MISS LATENCY: 571.8 cycles
cpu0_DTLB TOTAL        ACCESS:  131598019 HIT:  129583311 MISS:    2014708
cpu0_DTLB LOAD         ACCESS:  131598019 HIT:  129583311 MISS:    2014708
cpu0_DTLB RFO          ACCESS:          0 HIT:          0 MISS:          0
cpu0_DTLB PREFETCH     ACCESS:          0 HIT:          0 MISS:          0
cpu0_DTLB WRITE        ACCESS:          0 HIT:          0 MISS:          0
cpu0_DTLB TRANSLATION  ACCESS:          0 HIT:          0 MISS:          0
cpu0_DTLB PREFETCH REQUESTED:          0 ISSUED:          0 USEFUL:          0 USELESS:          0
cpu0_DTLB AVERAGE MISS LATENCY: 18.6 cycles
cpu0_ITLB TOTAL        ACCESS:       4999 HIT:       4778 MISS:        221
cpu0_ITLB LOAD         ACCESS:       4999 HIT:       4778 MISS:        221
cpu0_ITLB RFO          ACCESS:          0 HIT:          0 MISS:          0
cpu0_ITLB PREFETCH     ACCESS:          0 HIT:          0 MISS:          0
cpu0_ITLB WRITE        ACCESS:          0 HIT:          0 MISS:          0
cpu0_ITLB TRANSLATION  ACCESS:          0 HIT:          0 MISS:          0
cpu0_ITLB PREFETCH REQUESTED:          0 ISSUED:          0 USEFUL:          0 USELESS:          0
cpu0_ITLB AVERAGE MISS LATENCY: 273.6 cycles
cpu0_L1D TOTAL        ACCESS:  179075985 HIT:  167758175 MISS:   11317810
cpu0_L1D LOAD         ACCESS:   70863985 HIT:   68816266 MISS:    2047719
cpu0_L1D RFO          ACCESS:          0 HIT:          0 MISS:          0
cpu0_L1D PREFETCH     ACCESS:          0 HIT:          0 MISS:          0
cpu0_L1D WRITE        ACCESS:  106906505 HIT:   98382634 MISS:    8523871
cpu0_L1D TRANSLATION  ACCESS:    1305495 HIT:     559275 MISS:     746220
cpu0_L1D PREFETCH REQUESTED:          0 ISSUED:          0 USEFUL:          0 USELESS:          0
cpu0_L1D AVERAGE MISS LATENCY: 141.4 cycles
cpu0_L1I TOTAL        ACCESS:       5702 HIT:       3419 MISS:       2283
cpu0_L1I LOAD         ACCESS:       5702 HIT:       3419 MISS:       2283
cpu0_L1I RFO          ACCESS:          0 HIT:          0 MISS:          0
cpu0_L1I PREFETCH     ACCESS:          0 HIT:          0 MISS:          0
cpu0_L1I WRITE        ACCESS:          0 HIT:          0 MISS:          0
cpu0_L1I TRANSLATION  ACCESS:          0 HIT:          0 MISS:          0
cpu0_L1I PREFETCH REQUESTED:          0 ISSUED:          0 USEFUL:          0 USELESS:          0
cpu0_L1I AVERAGE MISS LATENCY: 362.1 cycles
cpu0_L2C TOTAL        ACCESS:    3903780 HIT:    1376359 MISS:    2527421
cpu0_L2C LOAD         ACCESS:    2009350 HIT:      54906 MISS:    1954444
cpu0_L2C RFO          ACCESS:     573547 HIT:      11835 MISS:     561712
cpu0_L2C PREFETCH     ACCESS:          0 HIT:          0 MISS:          0
cpu0_L2C WRITE        ACCESS:     574680 HIT:     574662 MISS:         18
cpu0_L2C TRANSLATION  ACCESS:     746203 HIT:     734956 MISS:      11247
cpu0_L2C PREFETCH REQUESTED:          0 ISSUED:          0 USEFUL:          0 USELESS:          0
cpu0_L2C AVERAGE MISS LATENCY: 656.3 cycles
cpu0_STLB TOTAL        ACCESS:    1982661 HIT:     677174 MISS:    1305487
cpu0_STLB LOAD         ACCESS:    1982661 HIT:     677174 MISS:    1305487
cpu0_STLB RFO          ACCESS:          0 HIT:          0 MISS:          0
cpu0_STLB PREFETCH     ACCESS:          0 HIT:          0 MISS:          0
cpu0_STLB WRITE        ACCESS:          0 HIT:          0 MISS:          0
cpu0_STLB TRANSLATION  ACCESS:          0 HIT:          0 MISS:          0
cpu0_STLB PREFETCH REQUESTED:          0 ISSUED:          0 USEFUL:          0 USELESS:          0
cpu0_STLB AVERAGE MISS LATENCY: 15.66 cycles

DRAM Statistics

Channel 0 RQ ROW_BUFFER_HIT:     109387
  ROW_BUFFER_MISS:    2184317
 AVG DBUS CONGESTED CYCLE: 3.941
WQ ROW_BUFFER_HIT: Channel 0 
  ROW_BUFFER_MISS:     155905
  FULL:     367080
