WARNING: physical memory size is smaller than virtual memory size.

*** ChampSim Multicore Out-of-Order Simulator ***
Warmup Instructions: 50000000
Simulation Instructions: 600000000
Number of CPUs: 1
Page size: 4096

Off-chip DRAM Size: 4 GiB Channels: 1 Width: 64-bit Data Race: 3200 MT/s
Heartbeat CPU 0 instructions: 10000004 cycles: 2777663 heartbeat IPC: 3.6 cumulative IPC: 3.6 (Simulation time: 00 hr 01 min 08 sec)
Heartbeat CPU 0 instructions: 20000001 cycles: 5634805 heartbeat IPC: 3.5 cumulative IPC: 3.549 (Simulation time: 00 hr 02 min 09 sec)
Heartbeat CPU 0 instructions: 30000000 cycles: 8491948 heartbeat IPC: 3.5 cumulative IPC: 3.533 (Simulation time: 00 hr 03 min 07 sec)
Heartbeat CPU 0 instructions: 40000003 cycles: 11120601 heartbeat IPC: 3.804 cumulative IPC: 3.597 (Simulation time: 00 hr 04 min 00 sec)
Heartbeat CPU 0 instructions: 50000003 cycles: 13620601 heartbeat IPC: 4 cumulative IPC: 3.671 (Simulation time: 00 hr 04 min 49 sec)
Warmup finished CPU 0 instructions: 50000003 cycles: 13620602 cumulative IPC: 3.671 (Simulation time: 00 hr 04 min 49 sec)
Warmup complete CPU 0 instructions: 50000003 cycles: 13620602 cumulative IPC: 3.671 (Simulation time: 00 hr 04 min 49 sec)
Heartbeat CPU 0 instructions: 60000002 cycles: 16347845 heartbeat IPC: 3.667 cumulative IPC: 3.667 (Simulation time: 00 hr 05 min 41 sec)
Heartbeat CPU 0 instructions: 70000001 cycles: 19075145 heartbeat IPC: 3.667 cumulative IPC: 3.667 (Simulation time: 00 hr 06 min 32 sec)
Heartbeat CPU 0 instructions: 80000001 cycles: 21802387 heartbeat IPC: 3.667 cumulative IPC: 3.667 (Simulation time: 00 hr 07 min 24 sec)
Heartbeat CPU 0 instructions: 90000000 cycles: 24530053 heartbeat IPC: 3.666 cumulative IPC: 3.667 (Simulation time: 00 hr 08 min 17 sec)
Heartbeat CPU 0 instructions: 100000003 cycles: 27257296 heartbeat IPC: 3.667 cumulative IPC: 3.667 (Simulation time: 00 hr 09 min 06 sec)
Heartbeat CPU 0 instructions: 110000004 cycles: 29984599 heartbeat IPC: 3.667 cumulative IPC: 3.667 (Simulation time: 00 hr 09 min 59 sec)
Heartbeat CPU 0 instructions: 120000003 cycles: 32711869 heartbeat IPC: 3.667 cumulative IPC: 3.667 (Simulation time: 00 hr 10 min 50 sec)
Heartbeat CPU 0 instructions: 130000003 cycles: 35439142 heartbeat IPC: 3.667 cumulative IPC: 3.667 (Simulation time: 00 hr 11 min 39 sec)
Heartbeat CPU 0 instructions: 140000002 cycles: 38166817 heartbeat IPC: 3.666 cumulative IPC: 3.667 (Simulation time: 00 hr 12 min 28 sec)
Heartbeat CPU 0 instructions: 150000000 cycles: 40894060 heartbeat IPC: 3.667 cumulative IPC: 3.667 (Simulation time: 00 hr 13 min 19 sec)
Heartbeat CPU 0 instructions: 160000001 cycles: 43621364 heartbeat IPC: 3.667 cumulative IPC: 3.667 (Simulation time: 00 hr 14 min 10 sec)
Heartbeat CPU 0 instructions: 170000004 cycles: 46348605 heartbeat IPC: 3.667 cumulative IPC: 3.667 (Simulation time: 00 hr 15 min 00 sec)
Heartbeat CPU 0 instructions: 180000000 cycles: 49076718 heartbeat IPC: 3.666 cumulative IPC: 3.667 (Simulation time: 00 hr 15 min 48 sec)
Heartbeat CPU 0 instructions: 190000004 cycles: 51804004 heartbeat IPC: 3.667 cumulative IPC: 3.667 (Simulation time: 00 hr 16 min 38 sec)
Heartbeat CPU 0 instructions: 200000002 cycles: 54531262 heartbeat IPC: 3.667 cumulative IPC: 3.667 (Simulation time: 00 hr 17 min 28 sec)
Heartbeat CPU 0 instructions: 210000003 cycles: 57258565 heartbeat IPC: 3.667 cumulative IPC: 3.667 (Simulation time: 00 hr 18 min 17 sec)
Heartbeat CPU 0 instructions: 220000001 cycles: 59985807 heartbeat IPC: 3.667 cumulative IPC: 3.667 (Simulation time: 00 hr 19 min 03 sec)
Heartbeat CPU 0 instructions: 230000002 cycles: 62713484 heartbeat IPC: 3.666 cumulative IPC: 3.667 (Simulation time: 00 hr 19 min 50 sec)
Heartbeat CPU 0 instructions: 240000003 cycles: 65440726 heartbeat IPC: 3.667 cumulative IPC: 3.667 (Simulation time: 00 hr 20 min 40 sec)
Heartbeat CPU 0 instructions: 250000004 cycles: 68168029 heartbeat IPC: 3.667 cumulative IPC: 3.667 (Simulation time: 00 hr 21 min 30 sec)
Heartbeat CPU 0 instructions: 260000000 cycles: 70895312 heartbeat IPC: 3.667 cumulative IPC: 3.667 (Simulation time: 00 hr 22 min 18 sec)
Heartbeat CPU 0 instructions: 270000003 cycles: 73622929 heartbeat IPC: 3.666 cumulative IPC: 3.667 (Simulation time: 00 hr 23 min 04 sec)
Heartbeat CPU 0 instructions: 280000001 cycles: 76350230 heartbeat IPC: 3.667 cumulative IPC: 3.667 (Simulation time: 00 hr 23 min 53 sec)
Heartbeat CPU 0 instructions: 290000000 cycles: 79077471 heartbeat IPC: 3.667 cumulative IPC: 3.667 (Simulation time: 00 hr 24 min 40 sec)
Heartbeat CPU 0 instructions: 300000001 cycles: 81804774 heartbeat IPC: 3.667 cumulative IPC: 3.667 (Simulation time: 00 hr 25 min 24 sec)
Heartbeat CPU 0 instructions: 310000000 cycles: 84532016 heartbeat IPC: 3.667 cumulative IPC: 3.667 (Simulation time: 00 hr 26 min 07 sec)
Heartbeat CPU 0 instructions: 320000000 cycles: 87259693 heartbeat IPC: 3.666 cumulative IPC: 3.667 (Simulation time: 00 hr 26 min 52 sec)
Heartbeat CPU 0 instructions: 330000001 cycles: 89986989 heartbeat IPC: 3.667 cumulative IPC: 3.667 (Simulation time: 00 hr 27 min 39 sec)
Heartbeat CPU 0 instructions: 340000002 cycles: 92714236 heartbeat IPC: 3.667 cumulative IPC: 3.667 (Simulation time: 00 hr 28 min 23 sec)
Heartbeat CPU 0 instructions: 350000003 cycles: 95441539 heartbeat IPC: 3.667 cumulative IPC: 3.667 (Simulation time: 00 hr 29 min 06 sec)
Heartbeat CPU 0 instructions: 360000001 cycles: 98169144 heartbeat IPC: 3.666 cumulative IPC: 3.667 (Simulation time: 00 hr 29 min 50 sec)
Heartbeat CPU 0 instructions: 370000002 cycles: 100896448 heartbeat IPC: 3.667 cumulative IPC: 3.667 (Simulation time: 00 hr 30 min 32 sec)
Heartbeat CPU 0 instructions: 380000001 cycles: 103623702 heartbeat IPC: 3.667 cumulative IPC: 3.667 (Simulation time: 00 hr 31 min 15 sec)
Heartbeat CPU 0 instructions: 390000004 cycles: 106350991 heartbeat IPC: 3.667 cumulative IPC: 3.667 (Simulation time: 00 hr 31 min 56 sec)
Heartbeat CPU 0 instructions: 400000000 cycles: 109078291 heartbeat IPC: 3.667 cumulative IPC: 3.667 (Simulation time: 00 hr 32 min 38 sec)
Heartbeat CPU 0 instructions: 410000003 cycles: 111805910 heartbeat IPC: 3.666 cumulative IPC: 3.667 (Simulation time: 00 hr 33 min 20 sec)
Heartbeat CPU 0 instructions: 420000000 cycles: 122164015 heartbeat IPC: 0.9654 cumulative IPC: 3.409 (Simulation time: 00 hr 35 min 06 sec)
Heartbeat CPU 0 instructions: 430000003 cycles: 144184606 heartbeat IPC: 0.4541 cumulative IPC: 2.91 (Simulation time: 00 hr 38 min 25 sec)
Heartbeat CPU 0 instructions: 440000004 cycles: 162807174 heartbeat IPC: 0.537 cumulative IPC: 2.614 (Simulation time: 00 hr 41 min 19 sec)
Heartbeat CPU 0 instructions: 450000001 cycles: 181385100 heartbeat IPC: 0.5383 cumulative IPC: 2.384 (Simulation time: 00 hr 44 min 16 sec)
Heartbeat CPU 0 instructions: 460000001 cycles: 199943339 heartbeat IPC: 0.5388 cumulative IPC: 2.2 (Simulation time: 00 hr 47 min 13 sec)
Heartbeat CPU 0 instructions: 470000003 cycles: 218499319 heartbeat IPC: 0.5389 cumulative IPC: 2.05 (Simulation time: 00 hr 49 min 40 sec)
Heartbeat CPU 0 instructions: 480000003 cycles: 237039780 heartbeat IPC: 0.5394 cumulative IPC: 1.925 (Simulation time: 00 hr 51 min 50 sec)
Heartbeat CPU 0 instructions: 490000004 cycles: 255574290 heartbeat IPC: 0.5395 cumulative IPC: 1.819 (Simulation time: 00 hr 54 min 01 sec)
Heartbeat CPU 0 instructions: 500000001 cycles: 274110599 heartbeat IPC: 0.5395 cumulative IPC: 1.728 (Simulation time: 00 hr 56 min 26 sec)
Heartbeat CPU 0 instructions: 510000002 cycles: 292636020 heartbeat IPC: 0.5398 cumulative IPC: 1.649 (Simulation time: 00 hr 58 min 52 sec)
Heartbeat CPU 0 instructions: 520000003 cycles: 311145843 heartbeat IPC: 0.5403 cumulative IPC: 1.58 (Simulation time: 01 hr 01 min 14 sec)
Heartbeat CPU 0 instructions: 530000003 cycles: 329691206 heartbeat IPC: 0.5392 cumulative IPC: 1.519 (Simulation time: 01 hr 03 min 31 sec)
Heartbeat CPU 0 instructions: 540000004 cycles: 348209632 heartbeat IPC: 0.54 cumulative IPC: 1.464 (Simulation time: 01 hr 05 min 41 sec)
Heartbeat CPU 0 instructions: 550000000 cycles: 366740806 heartbeat IPC: 0.5396 cumulative IPC: 1.416 (Simulation time: 01 hr 07 min 53 sec)
Heartbeat CPU 0 instructions: 560000002 cycles: 385284967 heartbeat IPC: 0.5393 cumulative IPC: 1.372 (Simulation time: 01 hr 10 min 38 sec)
Heartbeat CPU 0 instructions: 570000002 cycles: 403872834 heartbeat IPC: 0.538 cumulative IPC: 1.332 (Simulation time: 01 hr 13 min 42 sec)
Heartbeat CPU 0 instructions: 580000000 cycles: 422458762 heartbeat IPC: 0.538 cumulative IPC: 1.296 (Simulation time: 01 hr 16 min 14 sec)
Heartbeat CPU 0 instructions: 590000000 cycles: 441032681 heartbeat IPC: 0.5384 cumulative IPC: 1.263 (Simulation time: 01 hr 18 min 42 sec)
*** Reached end of trace: (0, "traces/l1l2l3cache.champsimtrace")
Heartbeat CPU 0 instructions: 600000000 cycles: 459568917 heartbeat IPC: 0.5395 cumulative IPC: 1.233 (Simulation time: 01 hr 21 min 04 sec)
Heartbeat CPU 0 instructions: 610000004 cycles: 472969390 heartbeat IPC: 0.7462 cumulative IPC: 1.219 (Simulation time: 01 hr 22 min 27 sec)
Heartbeat CPU 0 instructions: 620000000 cycles: 487522114 heartbeat IPC: 0.6872 cumulative IPC: 1.203 (Simulation time: 01 hr 23 min 57 sec)
Heartbeat CPU 0 instructions: 630000002 cycles: 502134754 heartbeat IPC: 0.6843 cumulative IPC: 1.187 (Simulation time: 01 hr 25 min 10 sec)
Heartbeat CPU 0 instructions: 640000000 cycles: 509163564 heartbeat IPC: 1.423 cumulative IPC: 1.191 (Simulation time: 01 hr 25 min 50 sec)
Heartbeat CPU 0 instructions: 650000003 cycles: 511890836 heartbeat IPC: 3.667 cumulative IPC: 1.204 (Simulation time: 01 hr 26 min 11 sec)
Simulation finished CPU 0 instructions: 600000000 cycles: 498270235 cumulative IPC: 1.204 (Simulation time: 01 hr 26 min 11 sec)
Simulation complete CPU 0 instructions: 600000000 cycles: 498270235 cumulative IPC: 1.204 (Simulation time: 01 hr 26 min 11 sec)

ChampSim completed all CPUs

=== Simulation ===
CPU 0 runs traces/l1l2l3cache.champsimtrace
Region of Interest Statistics

CPU 0 cumulative IPC: 1.204 instructions: 600000000 cycles: 498270235
CPU 0 Branch Prediction Accuracy: 99.34% MPKI: 1.413 Average ROB Occupancy at Mispredict: 143
Branch type MPKI
BRANCH_DIRECT_JUMP: 8.5e-05
BRANCH_INDIRECT: 0.000237
BRANCH_CONDITIONAL: 1.41
BRANCH_DIRECT_CALL: 5e-06
BRANCH_INDIRECT_CALL: 4.67e-05
BRANCH_RETURN: 3.67e-05

LLC TOTAL        ACCESS:    3089473 HIT:     435711 MISS:    2653762
LLC LOAD         ACCESS:    1954445 HIT:     218292 MISS:    1736153
LLC RFO          ACCESS:     561712 HIT:      24245 MISS:     537467
LLC PREFETCH     ACCESS:          0 HIT:          0 MISS:          0
LLC WRITE        ACCESS:     562069 HIT:     184153 MISS:     377916
LLC TRANSLATION  ACCESS:      11247 HIT:       9021 MISS:       2226
LLC PREFETCH REQUESTED:          0 ISSUED:          0 USEFUL:          0 USELESS:          0
LLC AVERAGE MISS LATENCY: 608.2 cycles
cpu0_DTLB TOTAL        ACCESS:  131253065 HIT:  129238790 MISS:    2014275
cpu0_DTLB LOAD         ACCESS:  131253065 HIT:  129238790 MISS:    2014275
cpu0_DTLB RFO          ACCESS:          0 HIT:          0 MISS:          0
cpu0_DTLB PREFETCH     ACCESS:          0 HIT:          0 MISS:          0
cpu0_DTLB WRITE        ACCESS:          0 HIT:          0 MISS:          0
cpu0_DTLB TRANSLATION  ACCESS:          0 HIT:          0 MISS:          0
cpu0_DTLB PREFETCH REQUESTED:          0 ISSUED:          0 USEFUL:          0 USELESS:          0
cpu0_DTLB AVERAGE MISS LATENCY: 17.66 cycles
cpu0_ITLB TOTAL        ACCESS:       5010 HIT:       4789 MISS:        221
cpu0_ITLB LOAD         ACCESS:       5010 HIT:       4789 MISS:        221
cpu0_ITLB RFO          ACCESS:          0 HIT:          0 MISS:          0
cpu0_ITLB PREFETCH     ACCESS:          0 HIT:          0 MISS:          0
cpu0_ITLB WRITE        ACCESS:          0 HIT:          0 MISS:          0
cpu0_ITLB TRANSLATION  ACCESS:          0 HIT:          0 MISS:          0
cpu0_ITLB PREFETCH REQUESTED:          0 ISSUED:          0 USEFUL:          0 USELESS:          0
cpu0_ITLB AVERAGE MISS LATENCY: 260.6 cycles
cpu0_L1D TOTAL        ACCESS:  178597582 HIT:  167026456 MISS:   11571126
cpu0_L1D LOAD         ACCESS:   70618099 HIT:   68567754 MISS:    2050345
cpu0_L1D RFO          ACCESS:          0 HIT:          0 MISS:          0
cpu0_L1D PREFETCH     ACCESS:          0 HIT:          0 MISS:          0
cpu0_L1D WRITE        ACCESS:  106673979 HIT:   97899433 MISS:    8774546
cpu0_L1D TRANSLATION  ACCESS:    1305504 HIT:     559269 MISS:     746235
cpu0_L1D PREFETCH REQUESTED:          0 ISSUED:          0 USEFUL:          0 USELESS:          0
cpu0_L1D AVERAGE MISS LATENCY: 138.5 cycles
cpu0_L1I TOTAL        ACCESS:       5713 HIT:       3423 MISS:       2290
cpu0_L1I LOAD         ACCESS:       5713 HIT:       3423 MISS:       2290
cpu0_L1I RFO          ACCESS:          0 HIT:          0 MISS:          0
cpu0_L1I PREFETCH     ACCESS:          0 HIT:          0 MISS:          0
cpu0_L1I WRITE        ACCESS:          0 HIT:          0 MISS:          0
cpu0_L1I TRANSLATION  ACCESS:          0 HIT:          0 MISS:          0
cpu0_L1I PREFETCH REQUESTED:          0 ISSUED:          0 USEFUL:          0 USELESS:          0
cpu0_L1I AVERAGE MISS LATENCY: 354.5 cycles
cpu0_L2C TOTAL        ACCESS:    3903781 HIT:    1376358 MISS:    2527423
cpu0_L2C LOAD         ACCESS:    2009353 HIT:      54908 MISS:    1954445
cpu0_L2C RFO          ACCESS:     573526 HIT:      11814 MISS:     561712
cpu0_L2C PREFETCH     ACCESS:          0 HIT:          0 MISS:          0
cpu0_L2C WRITE        ACCESS:     574678 HIT:     574659 MISS:         19
cpu0_L2C TRANSLATION  ACCESS:     746224 HIT:     734977 MISS:      11247
cpu0_L2C PREFETCH REQUESTED:          0 ISSUED:          0 USEFUL:          0 USELESS:          0
cpu0_L2C AVERAGE MISS LATENCY: 659.5 cycles
cpu0_STLB TOTAL        ACCESS:    1982674 HIT:     677178 MISS:    1305496
cpu0_STLB LOAD         ACCESS:    1982674 HIT:     677178 MISS:    1305496
cpu0_STLB RFO          ACCESS:          0 HIT:          0 MISS:          0
cpu0_STLB PREFETCH     ACCESS:          0 HIT:          0 MISS:          0
cpu0_STLB WRITE        ACCESS:          0 HIT:          0 MISS:          0
cpu0_STLB TRANSLATION  ACCESS:          0 HIT:          0 MISS:          0
cpu0_STLB PREFETCH REQUESTED:          0 ISSUED:          0 USEFUL:          0 USELESS:          0
cpu0_STLB AVERAGE MISS LATENCY: 14.2 cycles

DRAM Statistics

Channel 0 RQ ROW_BUFFER_HIT:     139290
  ROW_BUFFER_MISS:    2136229
 AVG DBUS CONGESTED CYCLE: 3.939
WQ ROW_BUFFER_HIT: Channel 0 
  ROW_BUFFER_MISS:     154633
  FULL:     403003
