WARNING: physical memory size is smaller than virtual memory size.

*** ChampSim Multicore Out-of-Order Simulator ***
Warmup Instructions: 50000000
Simulation Instructions: 600000000
Number of CPUs: 1
Page size: 4096

CPU 0 Tage branch predictor
Off-chip DRAM Size: 4 GiB Channels: 1 Width: 64-bit Data Race: 3200 MT/s
Heartbeat CPU 0 instructions: 10000004 cycles: 2777663 heartbeat IPC: 3.6 cumulative IPC: 3.6 (Simulation time: 00 hr 01 min 05 sec)
Heartbeat CPU 0 instructions: 20000001 cycles: 5634805 heartbeat IPC: 3.5 cumulative IPC: 3.549 (Simulation time: 00 hr 02 min 11 sec)
Heartbeat CPU 0 instructions: 30000000 cycles: 8491948 heartbeat IPC: 3.5 cumulative IPC: 3.533 (Simulation time: 00 hr 03 min 22 sec)
Heartbeat CPU 0 instructions: 40000003 cycles: 11120601 heartbeat IPC: 3.804 cumulative IPC: 3.597 (Simulation time: 00 hr 04 min 28 sec)
Heartbeat CPU 0 instructions: 50000003 cycles: 13620601 heartbeat IPC: 4 cumulative IPC: 3.671 (Simulation time: 00 hr 05 min 37 sec)
Warmup finished CPU 0 instructions: 50000003 cycles: 13620602 cumulative IPC: 3.671 (Simulation time: 00 hr 05 min 37 sec)
Warmup complete CPU 0 instructions: 50000003 cycles: 13620602 cumulative IPC: 3.671 (Simulation time: 00 hr 05 min 37 sec)
Heartbeat CPU 0 instructions: 60000002 cycles: 16120603 heartbeat IPC: 4 cumulative IPC: 4 (Simulation time: 00 hr 06 min 51 sec)
Heartbeat CPU 0 instructions: 70000001 cycles: 18620602 heartbeat IPC: 4 cumulative IPC: 4 (Simulation time: 00 hr 08 min 13 sec)
Heartbeat CPU 0 instructions: 80000000 cycles: 21120601 heartbeat IPC: 4 cumulative IPC: 4 (Simulation time: 00 hr 10 min 05 sec)
Heartbeat CPU 0 instructions: 90000003 cycles: 23621785 heartbeat IPC: 3.998 cumulative IPC: 4 (Simulation time: 00 hr 12 min 36 sec)
Heartbeat CPU 0 instructions: 100000003 cycles: 26121786 heartbeat IPC: 4 cumulative IPC: 4 (Simulation time: 00 hr 15 min 18 sec)
Heartbeat CPU 0 instructions: 110000004 cycles: 28621787 heartbeat IPC: 4 cumulative IPC: 4 (Simulation time: 00 hr 17 min 58 sec)
Heartbeat CPU 0 instructions: 120000003 cycles: 31121786 heartbeat IPC: 4 cumulative IPC: 4 (Simulation time: 00 hr 20 min 20 sec)
Heartbeat CPU 0 instructions: 130000002 cycles: 33621785 heartbeat IPC: 4 cumulative IPC: 4 (Simulation time: 00 hr 23 min 10 sec)
Heartbeat CPU 0 instructions: 140000000 cycles: 36123651 heartbeat IPC: 3.997 cumulative IPC: 3.999 (Simulation time: 00 hr 26 min 28 sec)
Heartbeat CPU 0 instructions: 150000000 cycles: 38623652 heartbeat IPC: 4 cumulative IPC: 4 (Simulation time: 00 hr 29 min 29 sec)
Heartbeat CPU 0 instructions: 160000001 cycles: 41123653 heartbeat IPC: 4 cumulative IPC: 4 (Simulation time: 00 hr 32 min 01 sec)
Heartbeat CPU 0 instructions: 170000004 cycles: 43623653 heartbeat IPC: 4 cumulative IPC: 4 (Simulation time: 00 hr 34 min 59 sec)
Heartbeat CPU 0 instructions: 180000000 cycles: 46125487 heartbeat IPC: 3.997 cumulative IPC: 3.999 (Simulation time: 00 hr 38 min 16 sec)
Heartbeat CPU 0 instructions: 190000004 cycles: 48625488 heartbeat IPC: 4 cumulative IPC: 3.999 (Simulation time: 00 hr 40 min 57 sec)
Heartbeat CPU 0 instructions: 200000002 cycles: 51125488 heartbeat IPC: 4 cumulative IPC: 3.999 (Simulation time: 00 hr 43 min 56 sec)
Heartbeat CPU 0 instructions: 210000003 cycles: 53625489 heartbeat IPC: 4 cumulative IPC: 4 (Simulation time: 00 hr 47 min 05 sec)
Heartbeat CPU 0 instructions: 220000001 cycles: 56125488 heartbeat IPC: 4 cumulative IPC: 4 (Simulation time: 00 hr 49 min 55 sec)
Heartbeat CPU 0 instructions: 230000002 cycles: 58627360 heartbeat IPC: 3.997 cumulative IPC: 3.999 (Simulation time: 00 hr 53 min 27 sec)
Heartbeat CPU 0 instructions: 240000003 cycles: 61127360 heartbeat IPC: 4 cumulative IPC: 3.999 (Simulation time: 00 hr 56 min 04 sec)
Heartbeat CPU 0 instructions: 250000004 cycles: 63627361 heartbeat IPC: 4 cumulative IPC: 3.999 (Simulation time: 00 hr 58 min 27 sec)
Heartbeat CPU 0 instructions: 260000000 cycles: 66127361 heartbeat IPC: 4 cumulative IPC: 3.999 (Simulation time: 01 hr 01 min 22 sec)
Heartbeat CPU 0 instructions: 270000003 cycles: 68627830 heartbeat IPC: 3.999 cumulative IPC: 3.999 (Simulation time: 01 hr 04 min 49 sec)
Heartbeat CPU 0 instructions: 280000001 cycles: 71127828 heartbeat IPC: 4 cumulative IPC: 3.999 (Simulation time: 01 hr 07 min 42 sec)
Heartbeat CPU 0 instructions: 290000000 cycles: 73627828 heartbeat IPC: 4 cumulative IPC: 4 (Simulation time: 01 hr 10 min 18 sec)
Heartbeat CPU 0 instructions: 300000001 cycles: 76127829 heartbeat IPC: 4 cumulative IPC: 4 (Simulation time: 01 hr 12 min 58 sec)
Heartbeat CPU 0 instructions: 310000000 cycles: 78627829 heartbeat IPC: 4 cumulative IPC: 4 (Simulation time: 01 hr 16 min 35 sec)
Heartbeat CPU 0 instructions: 320000000 cycles: 81128303 heartbeat IPC: 3.999 cumulative IPC: 4 (Simulation time: 01 hr 19 min 29 sec)
Heartbeat CPU 0 instructions: 330000000 cycles: 83628301 heartbeat IPC: 4 cumulative IPC: 4 (Simulation time: 01 hr 21 min 59 sec)
Heartbeat CPU 0 instructions: 340000002 cycles: 86128302 heartbeat IPC: 4 cumulative IPC: 4 (Simulation time: 01 hr 24 min 15 sec)
Heartbeat CPU 0 instructions: 350000003 cycles: 88628303 heartbeat IPC: 4 cumulative IPC: 4 (Simulation time: 01 hr 27 min 43 sec)
Heartbeat CPU 0 instructions: 360000001 cycles: 91128770 heartbeat IPC: 3.999 cumulative IPC: 4 (Simulation time: 01 hr 30 min 50 sec)
Heartbeat CPU 0 instructions: 370000002 cycles: 93628771 heartbeat IPC: 4 cumulative IPC: 4 (Simulation time: 01 hr 33 min 33 sec)
Heartbeat CPU 0 instructions: 380000002 cycles: 96128769 heartbeat IPC: 4 cumulative IPC: 4 (Simulation time: 01 hr 36 min 25 sec)
Heartbeat CPU 0 instructions: 390000004 cycles: 98628770 heartbeat IPC: 4 cumulative IPC: 4 (Simulation time: 01 hr 39 min 47 sec)
Heartbeat CPU 0 instructions: 400000000 cycles: 101128770 heartbeat IPC: 4 cumulative IPC: 4 (Simulation time: 01 hr 42 min 44 sec)
Heartbeat CPU 0 instructions: 410000003 cycles: 103629328 heartbeat IPC: 3.999 cumulative IPC: 4 (Simulation time: 01 hr 45 min 22 sec)
Heartbeat CPU 0 instructions: 420000003 cycles: 111002356 heartbeat IPC: 1.356 cumulative IPC: 3.799 (Simulation time: 01 hr 50 min 47 sec)
Heartbeat CPU 0 instructions: 430000002 cycles: 130028469 heartbeat IPC: 0.5256 cumulative IPC: 3.264 (Simulation time: 02 hr 01 min 31 sec)
Heartbeat CPU 0 instructions: 440000004 cycles: 149039474 heartbeat IPC: 0.526 cumulative IPC: 2.88 (Simulation time: 02 hr 12 min 23 sec)
Heartbeat CPU 0 instructions: 450000000 cycles: 168066632 heartbeat IPC: 0.5256 cumulative IPC: 2.59 (Simulation time: 02 hr 23 min 51 sec)
Heartbeat CPU 0 instructions: 460000002 cycles: 187006493 heartbeat IPC: 0.528 cumulative IPC: 2.365 (Simulation time: 02 hr 35 min 15 sec)
Heartbeat CPU 0 instructions: 470000003 cycles: 206014545 heartbeat IPC: 0.5261 cumulative IPC: 2.183 (Simulation time: 02 hr 47 min 09 sec)
Heartbeat CPU 0 instructions: 480000003 cycles: 224987235 heartbeat IPC: 0.5271 cumulative IPC: 2.034 (Simulation time: 02 hr 58 min 59 sec)
Heartbeat CPU 0 instructions: 490000004 cycles: 243963805 heartbeat IPC: 0.527 cumulative IPC: 1.91 (Simulation time: 03 hr 10 min 31 sec)
Heartbeat CPU 0 instructions: 500000003 cycles: 262967242 heartbeat IPC: 0.5262 cumulative IPC: 1.805 (Simulation time: 03 hr 22 min 33 sec)
Heartbeat CPU 0 instructions: 510000002 cycles: 281944371 heartbeat IPC: 0.527 cumulative IPC: 1.714 (Simulation time: 03 hr 33 min 06 sec)
Heartbeat CPU 0 instructions: 520000003 cycles: 300938809 heartbeat IPC: 0.5265 cumulative IPC: 1.636 (Simulation time: 03 hr 38 min 03 sec)
Heartbeat CPU 0 instructions: 530000004 cycles: 319873804 heartbeat IPC: 0.5281 cumulative IPC: 1.567 (Simulation time: 03 hr 41 min 11 sec)
Heartbeat CPU 0 instructions: 540000004 cycles: 338820907 heartbeat IPC: 0.5278 cumulative IPC: 1.507 (Simulation time: 03 hr 44 min 24 sec)
Heartbeat CPU 0 instructions: 550000000 cycles: 357834041 heartbeat IPC: 0.526 cumulative IPC: 1.453 (Simulation time: 03 hr 47 min 55 sec)
Heartbeat CPU 0 instructions: 560000002 cycles: 376819860 heartbeat IPC: 0.5267 cumulative IPC: 1.404 (Simulation time: 03 hr 51 min 21 sec)
Heartbeat CPU 0 instructions: 570000002 cycles: 395813057 heartbeat IPC: 0.5265 cumulative IPC: 1.361 (Simulation time: 03 hr 54 min 47 sec)
Heartbeat CPU 0 instructions: 580000004 cycles: 414821842 heartbeat IPC: 0.5261 cumulative IPC: 1.321 (Simulation time: 03 hr 58 min 07 sec)
Heartbeat CPU 0 instructions: 590000000 cycles: 433819606 heartbeat IPC: 0.5264 cumulative IPC: 1.285 (Simulation time: 04 hr 01 min 12 sec)
*** Reached end of trace: (0, "traces/l1l2l3cache.champsimtrace")
Heartbeat CPU 0 instructions: 600000000 cycles: 452811380 heartbeat IPC: 0.5265 cumulative IPC: 1.252 (Simulation time: 04 hr 04 min 43 sec)
Heartbeat CPU 0 instructions: 610000000 cycles: 461636707 heartbeat IPC: 1.133 cumulative IPC: 1.25 (Simulation time: 04 hr 06 min 23 sec)
Heartbeat CPU 0 instructions: 620000004 cycles: 477091324 heartbeat IPC: 0.6471 cumulative IPC: 1.23 (Simulation time: 04 hr 08 min 58 sec)
Heartbeat CPU 0 instructions: 630000002 cycles: 492544494 heartbeat IPC: 0.6471 cumulative IPC: 1.211 (Simulation time: 04 hr 11 min 36 sec)
Heartbeat CPU 0 instructions: 640000000 cycles: 499718312 heartbeat IPC: 1.394 cumulative IPC: 1.214 (Simulation time: 04 hr 14 min 00 sec)
Heartbeat CPU 0 instructions: 650000001 cycles: 502218313 heartbeat IPC: 4 cumulative IPC: 1.228 (Simulation time: 04 hr 15 min 18 sec)
Simulation finished CPU 0 instructions: 600000003 cycles: 488597713 cumulative IPC: 1.228 (Simulation time: 04 hr 15 min 18 sec)
Simulation complete CPU 0 instructions: 600000003 cycles: 488597713 cumulative IPC: 1.228 (Simulation time: 04 hr 15 min 18 sec)

ChampSim completed all CPUs

=== Simulation ===
CPU 0 runs traces/l1l2l3cache.champsimtrace
Region of Interest Statistics

CPU 0 cumulative IPC: 1.228 instructions: 600000003 cycles: 488597713
CPU 0 Branch Prediction Accuracy: 99.99% MPKI: 0.01094 Average ROB Occupancy at Mispredict: 167.9
Branch type MPKI
BRANCH_DIRECT_JUMP: 8.5e-05
BRANCH_INDIRECT: 0.000237
BRANCH_CONDITIONAL: 0.0105
BRANCH_DIRECT_CALL: 5e-06
BRANCH_INDIRECT_CALL: 4.67e-05
BRANCH_RETURN: 3.67e-05

LLC TOTAL        ACCESS:    3095835 HIT:     253805 MISS:    2842030
LLC LOAD         ACCESS:    1954448 HIT:     158868 MISS:    1795580
LLC RFO          ACCESS:     561709 HIT:      44174 MISS:     517535
LLC PREFETCH     ACCESS:       6363 HIT:       5304 MISS:       1059
LLC WRITE        ACCESS:     562070 HIT:      45002 MISS:     517068
LLC TRANSLATION  ACCESS:      11245 HIT:        457 MISS:      10788
LLC PREFETCH REQUESTED:       6363 ISSUED:       6363 USEFUL:        401 USELESS:         41
LLC AVERAGE MISS LATENCY: 573.3 cycles
cpu0_DTLB TOTAL        ACCESS:  124328038 HIT:  122313169 MISS:    2014869
cpu0_DTLB LOAD         ACCESS:  124328038 HIT:  122313169 MISS:    2014869
cpu0_DTLB RFO          ACCESS:          0 HIT:          0 MISS:          0
cpu0_DTLB PREFETCH     ACCESS:          0 HIT:          0 MISS:          0
cpu0_DTLB WRITE        ACCESS:          0 HIT:          0 MISS:          0
cpu0_DTLB TRANSLATION  ACCESS:          0 HIT:          0 MISS:          0
cpu0_DTLB PREFETCH REQUESTED:          0 ISSUED:          0 USEFUL:          0 USELESS:          0
cpu0_DTLB AVERAGE MISS LATENCY: 20.23 cycles
cpu0_ITLB TOTAL        ACCESS:       5038 HIT:       4799 MISS:        239
cpu0_ITLB LOAD         ACCESS:       5038 HIT:       4799 MISS:        239
cpu0_ITLB RFO          ACCESS:          0 HIT:          0 MISS:          0
cpu0_ITLB PREFETCH     ACCESS:          0 HIT:          0 MISS:          0
cpu0_ITLB WRITE        ACCESS:          0 HIT:          0 MISS:          0
cpu0_ITLB TRANSLATION  ACCESS:          0 HIT:          0 MISS:          0
cpu0_ITLB PREFETCH REQUESTED:          0 ISSUED:          0 USEFUL:          0 USELESS:          0
cpu0_ITLB AVERAGE MISS LATENCY: 87.99 cycles
cpu0_L1D TOTAL        ACCESS:  172103108 HIT:  160813447 MISS:   11289661
cpu0_L1D LOAD         ACCESS:   63782095 HIT:   61741691 MISS:    2040404
cpu0_L1D RFO          ACCESS:          0 HIT:          0 MISS:          0
cpu0_L1D PREFETCH     ACCESS:          0 HIT:          0 MISS:          0
cpu0_L1D WRITE        ACCESS:  107015522 HIT:   98512481 MISS:    8503041
cpu0_L1D TRANSLATION  ACCESS:    1305491 HIT:     559275 MISS:     746216
cpu0_L1D PREFETCH REQUESTED:          0 ISSUED:          0 USEFUL:          0 USELESS:          0
cpu0_L1D AVERAGE MISS LATENCY: 144.5 cycles
cpu0_L1I TOTAL        ACCESS:       5812 HIT:       3338 MISS:       2474
cpu0_L1I LOAD         ACCESS:       5812 HIT:       3338 MISS:       2474
cpu0_L1I RFO          ACCESS:          0 HIT:          0 MISS:          0
cpu0_L1I PREFETCH     ACCESS:          0 HIT:          0 MISS:          0
cpu0_L1I WRITE        ACCESS:          0 HIT:          0 MISS:          0
cpu0_L1I TRANSLATION  ACCESS:          0 HIT:          0 MISS:          0
cpu0_L1I PREFETCH REQUESTED:          0 ISSUED:          0 USEFUL:          0 USELESS:          0
cpu0_L1I AVERAGE MISS LATENCY: 139.6 cycles
cpu0_L2C TOTAL        ACCESS:    3905731 HIT:    1378313 MISS:    2527418
cpu0_L2C LOAD         ACCESS:    2009351 HIT:      54903 MISS:    1954448
cpu0_L2C RFO          ACCESS:     574406 HIT:      12697 MISS:     561709
cpu0_L2C PREFETCH     ACCESS:          0 HIT:          0 MISS:          0
cpu0_L2C WRITE        ACCESS:     575780 HIT:     575764 MISS:         16
cpu0_L2C TRANSLATION  ACCESS:     746194 HIT:     734949 MISS:      11245
cpu0_L2C PREFETCH REQUESTED:          0 ISSUED:          0 USEFUL:          0 USELESS:          0
cpu0_L2C AVERAGE MISS LATENCY: 665.6 cycles
cpu0_STLB TOTAL        ACCESS:    1982598 HIT:     677115 MISS:    1305483
cpu0_STLB LOAD         ACCESS:    1982598 HIT:     677115 MISS:    1305483
cpu0_STLB RFO          ACCESS:          0 HIT:          0 MISS:          0
cpu0_STLB PREFETCH     ACCESS:          0 HIT:          0 MISS:          0
cpu0_STLB WRITE        ACCESS:          0 HIT:          0 MISS:          0
cpu0_STLB TRANSLATION  ACCESS:          0 HIT:          0 MISS:          0
cpu0_STLB PREFETCH REQUESTED:          0 ISSUED:          0 USEFUL:          0 USELESS:          0
cpu0_STLB AVERAGE MISS LATENCY: 18.15 cycles

DRAM Statistics

Channel 0 RQ ROW_BUFFER_HIT:      87159
  ROW_BUFFER_MISS:    2236634
 AVG DBUS CONGESTED CYCLE: 3.94
WQ ROW_BUFFER_HIT: Channel 0 
  ROW_BUFFER_MISS:     175131
  FULL:     342411
