WARNING: physical memory size is smaller than virtual memory size.

*** ChampSim Multicore Out-of-Order Simulator ***
Warmup Instructions: 50000000
Simulation Instructions: 600000000
Number of CPUs: 1
Page size: 4096

Off-chip DRAM Size: 4 GiB Channels: 1 Width: 64-bit Data Race: 3200 MT/s
Heartbeat CPU 0 instructions: 10000004 cycles: 2777663 heartbeat IPC: 3.6 cumulative IPC: 3.6 (Simulation time: 00 hr 02 min 04 sec)
Heartbeat CPU 0 instructions: 20000001 cycles: 5634805 heartbeat IPC: 3.5 cumulative IPC: 3.549 (Simulation time: 00 hr 03 min 58 sec)
Heartbeat CPU 0 instructions: 30000000 cycles: 8491948 heartbeat IPC: 3.5 cumulative IPC: 3.533 (Simulation time: 00 hr 05 min 58 sec)
Heartbeat CPU 0 instructions: 40000003 cycles: 11120601 heartbeat IPC: 3.804 cumulative IPC: 3.597 (Simulation time: 00 hr 08 min 34 sec)
Heartbeat CPU 0 instructions: 50000003 cycles: 13620601 heartbeat IPC: 4 cumulative IPC: 3.671 (Simulation time: 00 hr 10 min 37 sec)
Warmup finished CPU 0 instructions: 50000003 cycles: 13620602 cumulative IPC: 3.671 (Simulation time: 00 hr 10 min 37 sec)
Warmup complete CPU 0 instructions: 50000003 cycles: 13620602 cumulative IPC: 3.671 (Simulation time: 00 hr 10 min 37 sec)
Heartbeat CPU 0 instructions: 60000002 cycles: 16295256 heartbeat IPC: 3.739 cumulative IPC: 3.739 (Simulation time: 00 hr 13 min 04 sec)
Heartbeat CPU 0 instructions: 70000001 cycles: 18969955 heartbeat IPC: 3.739 cumulative IPC: 3.739 (Simulation time: 00 hr 15 min 51 sec)
Heartbeat CPU 0 instructions: 80000000 cycles: 21644609 heartbeat IPC: 3.739 cumulative IPC: 3.739 (Simulation time: 00 hr 18 min 14 sec)
Heartbeat CPU 0 instructions: 90000003 cycles: 24320493 heartbeat IPC: 3.737 cumulative IPC: 3.738 (Simulation time: 00 hr 20 min 27 sec)
Heartbeat CPU 0 instructions: 100000003 cycles: 26995148 heartbeat IPC: 3.739 cumulative IPC: 3.738 (Simulation time: 00 hr 22 min 34 sec)
Heartbeat CPU 0 instructions: 110000004 cycles: 29669849 heartbeat IPC: 3.739 cumulative IPC: 3.738 (Simulation time: 00 hr 25 min 18 sec)
Heartbeat CPU 0 instructions: 120000003 cycles: 32344532 heartbeat IPC: 3.739 cumulative IPC: 3.739 (Simulation time: 00 hr 27 min 55 sec)
Heartbeat CPU 0 instructions: 130000002 cycles: 35019202 heartbeat IPC: 3.739 cumulative IPC: 3.739 (Simulation time: 00 hr 30 min 13 sec)
Heartbeat CPU 0 instructions: 140000002 cycles: 37694278 heartbeat IPC: 3.738 cumulative IPC: 3.739 (Simulation time: 00 hr 32 min 20 sec)
Heartbeat CPU 0 instructions: 150000000 cycles: 40368933 heartbeat IPC: 3.739 cumulative IPC: 3.739 (Simulation time: 00 hr 34 min 24 sec)
Heartbeat CPU 0 instructions: 160000001 cycles: 43043634 heartbeat IPC: 3.739 cumulative IPC: 3.739 (Simulation time: 00 hr 37 min 02 sec)
Heartbeat CPU 0 instructions: 170000004 cycles: 45718288 heartbeat IPC: 3.739 cumulative IPC: 3.739 (Simulation time: 00 hr 39 min 43 sec)
Heartbeat CPU 0 instructions: 180000000 cycles: 48393368 heartbeat IPC: 3.738 cumulative IPC: 3.739 (Simulation time: 00 hr 42 min 10 sec)
Heartbeat CPU 0 instructions: 190000004 cycles: 51068067 heartbeat IPC: 3.739 cumulative IPC: 3.739 (Simulation time: 00 hr 44 min 25 sec)
Heartbeat CPU 0 instructions: 200000002 cycles: 53742724 heartbeat IPC: 3.739 cumulative IPC: 3.739 (Simulation time: 00 hr 46 min 23 sec)
Heartbeat CPU 0 instructions: 210000003 cycles: 56417425 heartbeat IPC: 3.739 cumulative IPC: 3.739 (Simulation time: 00 hr 48 min 40 sec)
Heartbeat CPU 0 instructions: 220000001 cycles: 59092078 heartbeat IPC: 3.739 cumulative IPC: 3.739 (Simulation time: 00 hr 51 min 26 sec)
Heartbeat CPU 0 instructions: 230000002 cycles: 61767151 heartbeat IPC: 3.738 cumulative IPC: 3.739 (Simulation time: 00 hr 53 min 53 sec)
Heartbeat CPU 0 instructions: 240000003 cycles: 64441805 heartbeat IPC: 3.739 cumulative IPC: 3.739 (Simulation time: 00 hr 56 min 01 sec)
Heartbeat CPU 0 instructions: 250000004 cycles: 67116507 heartbeat IPC: 3.739 cumulative IPC: 3.739 (Simulation time: 00 hr 58 min 04 sec)
Heartbeat CPU 0 instructions: 260000000 cycles: 69791203 heartbeat IPC: 3.739 cumulative IPC: 3.739 (Simulation time: 01 hr 00 min 55 sec)
Heartbeat CPU 0 instructions: 270000003 cycles: 72466693 heartbeat IPC: 3.738 cumulative IPC: 3.739 (Simulation time: 01 hr 03 min 26 sec)
Heartbeat CPU 0 instructions: 280000001 cycles: 75141392 heartbeat IPC: 3.739 cumulative IPC: 3.739 (Simulation time: 01 hr 05 min 39 sec)
Heartbeat CPU 0 instructions: 290000000 cycles: 77816046 heartbeat IPC: 3.739 cumulative IPC: 3.739 (Simulation time: 01 hr 07 min 54 sec)
Heartbeat CPU 0 instructions: 300000001 cycles: 80490748 heartbeat IPC: 3.739 cumulative IPC: 3.739 (Simulation time: 01 hr 10 min 37 sec)
Heartbeat CPU 0 instructions: 310000000 cycles: 83165402 heartbeat IPC: 3.739 cumulative IPC: 3.739 (Simulation time: 01 hr 12 min 53 sec)
Heartbeat CPU 0 instructions: 320000000 cycles: 85840476 heartbeat IPC: 3.738 cumulative IPC: 3.739 (Simulation time: 01 hr 15 min 08 sec)
Heartbeat CPU 0 instructions: 330000002 cycles: 88515174 heartbeat IPC: 3.739 cumulative IPC: 3.739 (Simulation time: 01 hr 17 min 13 sec)
Heartbeat CPU 0 instructions: 340000002 cycles: 91189830 heartbeat IPC: 3.739 cumulative IPC: 3.739 (Simulation time: 01 hr 20 min 06 sec)
Heartbeat CPU 0 instructions: 350000003 cycles: 93864532 heartbeat IPC: 3.739 cumulative IPC: 3.739 (Simulation time: 01 hr 22 min 42 sec)
Heartbeat CPU 0 instructions: 360000001 cycles: 96539549 heartbeat IPC: 3.738 cumulative IPC: 3.739 (Simulation time: 01 hr 24 min 58 sec)
Heartbeat CPU 0 instructions: 370000002 cycles: 99214250 heartbeat IPC: 3.739 cumulative IPC: 3.739 (Simulation time: 01 hr 27 min 05 sec)
Heartbeat CPU 0 instructions: 380000001 cycles: 101888917 heartbeat IPC: 3.739 cumulative IPC: 3.739 (Simulation time: 01 hr 29 min 07 sec)
Heartbeat CPU 0 instructions: 390000004 cycles: 104563604 heartbeat IPC: 3.739 cumulative IPC: 3.739 (Simulation time: 01 hr 31 min 54 sec)
Heartbeat CPU 0 instructions: 400000000 cycles: 107238302 heartbeat IPC: 3.739 cumulative IPC: 3.739 (Simulation time: 01 hr 34 min 21 sec)
Heartbeat CPU 0 instructions: 410000003 cycles: 109913333 heartbeat IPC: 3.738 cumulative IPC: 3.739 (Simulation time: 01 hr 36 min 32 sec)
Heartbeat CPU 0 instructions: 420000003 cycles: 118325013 heartbeat IPC: 1.189 cumulative IPC: 3.534 (Simulation time: 01 hr 41 min 51 sec)
Heartbeat CPU 0 instructions: 430000003 cycles: 140340056 heartbeat IPC: 0.4542 cumulative IPC: 2.999 (Simulation time: 01 hr 54 min 14 sec)
Heartbeat CPU 0 instructions: 440000004 cycles: 159210054 heartbeat IPC: 0.5299 cumulative IPC: 2.679 (Simulation time: 02 hr 05 min 06 sec)
Heartbeat CPU 0 instructions: 450000000 cycles: 178050510 heartbeat IPC: 0.5308 cumulative IPC: 2.433 (Simulation time: 02 hr 16 min 19 sec)
Heartbeat CPU 0 instructions: 460000002 cycles: 196889807 heartbeat IPC: 0.5308 cumulative IPC: 2.237 (Simulation time: 02 hr 27 min 32 sec)
Heartbeat CPU 0 instructions: 470000003 cycles: 215738004 heartbeat IPC: 0.5306 cumulative IPC: 2.078 (Simulation time: 02 hr 38 min 39 sec)
Heartbeat CPU 0 instructions: 480000003 cycles: 234539155 heartbeat IPC: 0.5319 cumulative IPC: 1.946 (Simulation time: 02 hr 50 min 15 sec)
Heartbeat CPU 0 instructions: 490000004 cycles: 253339955 heartbeat IPC: 0.5319 cumulative IPC: 1.835 (Simulation time: 02 hr 58 min 03 sec)
Heartbeat CPU 0 instructions: 500000003 cycles: 272208612 heartbeat IPC: 0.53 cumulative IPC: 1.74 (Simulation time: 03 hr 01 min 53 sec)
Heartbeat CPU 0 instructions: 510000002 cycles: 291008762 heartbeat IPC: 0.5319 cumulative IPC: 1.658 (Simulation time: 03 hr 04 min 50 sec)
Heartbeat CPU 0 instructions: 520000003 cycles: 309847874 heartbeat IPC: 0.5308 cumulative IPC: 1.587 (Simulation time: 03 hr 07 min 55 sec)
Heartbeat CPU 0 instructions: 530000003 cycles: 328636322 heartbeat IPC: 0.5322 cumulative IPC: 1.524 (Simulation time: 03 hr 11 min 18 sec)
Heartbeat CPU 0 instructions: 540000004 cycles: 347407812 heartbeat IPC: 0.5327 cumulative IPC: 1.468 (Simulation time: 03 hr 14 min 39 sec)
Heartbeat CPU 0 instructions: 550000000 cycles: 366241856 heartbeat IPC: 0.531 cumulative IPC: 1.418 (Simulation time: 03 hr 18 min 03 sec)
Heartbeat CPU 0 instructions: 560000002 cycles: 385066667 heartbeat IPC: 0.5312 cumulative IPC: 1.373 (Simulation time: 03 hr 21 min 02 sec)
Heartbeat CPU 0 instructions: 570000002 cycles: 403913784 heartbeat IPC: 0.5306 cumulative IPC: 1.332 (Simulation time: 03 hr 23 min 57 sec)
Heartbeat CPU 0 instructions: 580000000 cycles: 422746863 heartbeat IPC: 0.531 cumulative IPC: 1.295 (Simulation time: 03 hr 27 min 07 sec)
Heartbeat CPU 0 instructions: 590000000 cycles: 441591340 heartbeat IPC: 0.5307 cumulative IPC: 1.262 (Simulation time: 03 hr 30 min 13 sec)
*** Reached end of trace: (0, "traces/l1l2l3cache.champsimtrace")
Heartbeat CPU 0 instructions: 600000000 cycles: 460379735 heartbeat IPC: 0.5322 cumulative IPC: 1.231 (Simulation time: 03 hr 33 min 13 sec)
Heartbeat CPU 0 instructions: 610000001 cycles: 471145992 heartbeat IPC: 0.9288 cumulative IPC: 1.224 (Simulation time: 03 hr 35 min 15 sec)
Heartbeat CPU 0 instructions: 620000003 cycles: 486621581 heartbeat IPC: 0.6462 cumulative IPC: 1.205 (Simulation time: 03 hr 39 min 06 sec)
Heartbeat CPU 0 instructions: 630000001 cycles: 502134628 heartbeat IPC: 0.6446 cumulative IPC: 1.187 (Simulation time: 03 hr 42 min 10 sec)
Heartbeat CPU 0 instructions: 640000000 cycles: 509459737 heartbeat IPC: 1.365 cumulative IPC: 1.19 (Simulation time: 03 hr 43 min 50 sec)
Heartbeat CPU 0 instructions: 650000003 cycles: 512134796 heartbeat IPC: 3.738 cumulative IPC: 1.204 (Simulation time: 03 hr 44 min 40 sec)
Simulation finished CPU 0 instructions: 600000000 cycles: 498514195 cumulative IPC: 1.204 (Simulation time: 03 hr 44 min 40 sec)
Simulation complete CPU 0 instructions: 600000000 cycles: 498514195 cumulative IPC: 1.204 (Simulation time: 03 hr 44 min 40 sec)

ChampSim completed all CPUs

=== Simulation ===
CPU 0 runs traces/l1l2l3cache.champsimtrace
Region of Interest Statistics

CPU 0 cumulative IPC: 1.204 instructions: 600000000 cycles: 498514195
CPU 0 Branch Prediction Accuracy: 99.5% MPKI: 1.069 Average ROB Occupancy at Mispredict: 148.9
Branch type MPKI
BRANCH_DIRECT_JUMP: 8.5e-05
BRANCH_INDIRECT: 0.000237
BRANCH_CONDITIONAL: 1.07
BRANCH_DIRECT_CALL: 5e-06
BRANCH_INDIRECT_CALL: 4.67e-05
BRANCH_RETURN: 3.67e-05

LLC TOTAL        ACCESS:    3089469 HIT:     747758 MISS:    2341711
LLC LOAD         ACCESS:    1954444 HIT:     178857 MISS:    1775587
LLC RFO          ACCESS:     561711 HIT:        959 MISS:     560752
LLC PREFETCH     ACCESS:          0 HIT:          0 MISS:          0
LLC WRITE        ACCESS:     562066 HIT:     562056 MISS:         10
LLC TRANSLATION  ACCESS:      11248 HIT:       5886 MISS:       5362
LLC PREFETCH REQUESTED:          0 ISSUED:          0 USEFUL:          0 USELESS:          0
LLC AVERAGE MISS LATENCY: 699.4 cycles
cpu0_DTLB TOTAL        ACCESS:  130604049 HIT:  128589131 MISS:    2014918
cpu0_DTLB LOAD         ACCESS:  130604049 HIT:  128589131 MISS:    2014918
cpu0_DTLB RFO          ACCESS:          0 HIT:          0 MISS:          0
cpu0_DTLB PREFETCH     ACCESS:          0 HIT:          0 MISS:          0
cpu0_DTLB WRITE        ACCESS:          0 HIT:          0 MISS:          0
cpu0_DTLB TRANSLATION  ACCESS:          0 HIT:          0 MISS:          0
cpu0_DTLB PREFETCH REQUESTED:          0 ISSUED:          0 USEFUL:          0 USELESS:          0
cpu0_DTLB AVERAGE MISS LATENCY: 18.45 cycles
cpu0_ITLB TOTAL        ACCESS:       5017 HIT:       4788 MISS:        229
cpu0_ITLB LOAD         ACCESS:       5017 HIT:       4788 MISS:        229
cpu0_ITLB RFO          ACCESS:          0 HIT:          0 MISS:          0
cpu0_ITLB PREFETCH     ACCESS:          0 HIT:          0 MISS:          0
cpu0_ITLB WRITE        ACCESS:          0 HIT:          0 MISS:          0
cpu0_ITLB TRANSLATION  ACCESS:          0 HIT:          0 MISS:          0
cpu0_ITLB PREFETCH REQUESTED:          0 ISSUED:          0 USEFUL:          0 USELESS:          0
cpu0_ITLB AVERAGE MISS LATENCY: 240 cycles
cpu0_L1D TOTAL        ACCESS:  178127604 HIT:  166537750 MISS:   11589854
cpu0_L1D LOAD         ACCESS:   69803484 HIT:   67752798 MISS:    2050686
cpu0_L1D RFO          ACCESS:          0 HIT:          0 MISS:          0
cpu0_L1D PREFETCH     ACCESS:          0 HIT:          0 MISS:          0
cpu0_L1D WRITE        ACCESS:  107018620 HIT:   98225693 MISS:    8792927
cpu0_L1D TRANSLATION  ACCESS:    1305500 HIT:     559259 MISS:     746241
cpu0_L1D PREFETCH REQUESTED:          0 ISSUED:          0 USEFUL:          0 USELESS:          0
cpu0_L1D AVERAGE MISS LATENCY: 140.4 cycles
cpu0_L1I TOTAL        ACCESS:       5728 HIT:       3254 MISS:       2474
cpu0_L1I LOAD         ACCESS:       5728 HIT:       3254 MISS:       2474
cpu0_L1I RFO          ACCESS:          0 HIT:          0 MISS:          0
cpu0_L1I PREFETCH     ACCESS:          0 HIT:          0 MISS:          0
cpu0_L1I WRITE        ACCESS:          0 HIT:          0 MISS:          0
cpu0_L1I TRANSLATION  ACCESS:          0 HIT:          0 MISS:          0
cpu0_L1I PREFETCH REQUESTED:          0 ISSUED:          0 USEFUL:          0 USELESS:          0
cpu0_L1I AVERAGE MISS LATENCY: 295.1 cycles
cpu0_L2C TOTAL        ACCESS:    3903771 HIT:    1376349 MISS:    2527422
cpu0_L2C LOAD         ACCESS:    2009350 HIT:      54906 MISS:    1954444
cpu0_L2C RFO          ACCESS:     573514 HIT:      11803 MISS:     561711
cpu0_L2C PREFETCH     ACCESS:          0 HIT:          0 MISS:          0
cpu0_L2C WRITE        ACCESS:     574681 HIT:     574662 MISS:         19
cpu0_L2C TRANSLATION  ACCESS:     746226 HIT:     734978 MISS:      11248
cpu0_L2C PREFETCH REQUESTED:          0 ISSUED:          0 USEFUL:          0 USELESS:          0
cpu0_L2C AVERAGE MISS LATENCY: 669 cycles
cpu0_STLB TOTAL        ACCESS:    1982642 HIT:     677150 MISS:    1305492
cpu0_STLB LOAD         ACCESS:    1982642 HIT:     677150 MISS:    1305492
cpu0_STLB RFO          ACCESS:          0 HIT:          0 MISS:          0
cpu0_STLB PREFETCH     ACCESS:          0 HIT:          0 MISS:          0
cpu0_STLB WRITE        ACCESS:          0 HIT:          0 MISS:          0
cpu0_STLB TRANSLATION  ACCESS:          0 HIT:          0 MISS:          0
cpu0_STLB PREFETCH REQUESTED:          0 ISSUED:          0 USEFUL:          0 USELESS:          0
cpu0_STLB AVERAGE MISS LATENCY: 15.43 cycles

DRAM Statistics

Channel 0 RQ ROW_BUFFER_HIT:     108416
  ROW_BUFFER_MISS:    2232984
 AVG DBUS CONGESTED CYCLE: 3.947
WQ ROW_BUFFER_HIT: Channel 0 
  ROW_BUFFER_MISS:     171182
  FULL:     390777
