WARNING: physical memory size is smaller than virtual memory size.

*** ChampSim Multicore Out-of-Order Simulator ***
Warmup Instructions: 50000000
Simulation Instructions: 600000000
Number of CPUs: 1
Page size: 4096

Off-chip DRAM Size: 4 GiB Channels: 1 Width: 64-bit Data Race: 3200 MT/s
Heartbeat CPU 0 instructions: 10000004 cycles: 2777663 heartbeat IPC: 3.6 cumulative IPC: 3.6 (Simulation time: 00 hr 01 min 07 sec)
Heartbeat CPU 0 instructions: 20000001 cycles: 5634805 heartbeat IPC: 3.5 cumulative IPC: 3.549 (Simulation time: 00 hr 02 min 08 sec)
Heartbeat CPU 0 instructions: 30000000 cycles: 8491948 heartbeat IPC: 3.5 cumulative IPC: 3.533 (Simulation time: 00 hr 03 min 05 sec)
Heartbeat CPU 0 instructions: 40000003 cycles: 11120601 heartbeat IPC: 3.804 cumulative IPC: 3.597 (Simulation time: 00 hr 04 min 02 sec)
Heartbeat CPU 0 instructions: 50000003 cycles: 13620601 heartbeat IPC: 4 cumulative IPC: 3.671 (Simulation time: 00 hr 04 min 54 sec)
Warmup finished CPU 0 instructions: 50000003 cycles: 13620602 cumulative IPC: 3.671 (Simulation time: 00 hr 04 min 54 sec)
Warmup complete CPU 0 instructions: 50000003 cycles: 13620602 cumulative IPC: 3.671 (Simulation time: 00 hr 04 min 54 sec)
Heartbeat CPU 0 instructions: 60000002 cycles: 16347845 heartbeat IPC: 3.667 cumulative IPC: 3.667 (Simulation time: 00 hr 05 min 55 sec)
Heartbeat CPU 0 instructions: 70000001 cycles: 19075145 heartbeat IPC: 3.667 cumulative IPC: 3.667 (Simulation time: 00 hr 06 min 55 sec)
Heartbeat CPU 0 instructions: 80000001 cycles: 21802387 heartbeat IPC: 3.667 cumulative IPC: 3.667 (Simulation time: 00 hr 07 min 56 sec)
Heartbeat CPU 0 instructions: 90000000 cycles: 24530053 heartbeat IPC: 3.666 cumulative IPC: 3.667 (Simulation time: 00 hr 09 min 21 sec)
Heartbeat CPU 0 instructions: 100000003 cycles: 27257296 heartbeat IPC: 3.667 cumulative IPC: 3.667 (Simulation time: 00 hr 10 min 53 sec)
Heartbeat CPU 0 instructions: 110000004 cycles: 29984599 heartbeat IPC: 3.667 cumulative IPC: 3.667 (Simulation time: 00 hr 13 min 09 sec)
Heartbeat CPU 0 instructions: 120000003 cycles: 32711869 heartbeat IPC: 3.667 cumulative IPC: 3.667 (Simulation time: 00 hr 15 min 22 sec)
Heartbeat CPU 0 instructions: 130000003 cycles: 35439142 heartbeat IPC: 3.667 cumulative IPC: 3.667 (Simulation time: 00 hr 17 min 29 sec)
Heartbeat CPU 0 instructions: 140000002 cycles: 38167324 heartbeat IPC: 3.665 cumulative IPC: 3.666 (Simulation time: 00 hr 19 min 32 sec)
Heartbeat CPU 0 instructions: 150000000 cycles: 40894567 heartbeat IPC: 3.667 cumulative IPC: 3.667 (Simulation time: 00 hr 21 min 26 sec)
Heartbeat CPU 0 instructions: 160000001 cycles: 43621871 heartbeat IPC: 3.667 cumulative IPC: 3.667 (Simulation time: 00 hr 24 min 27 sec)
Heartbeat CPU 0 instructions: 170000004 cycles: 46349112 heartbeat IPC: 3.667 cumulative IPC: 3.667 (Simulation time: 00 hr 27 min 18 sec)
Heartbeat CPU 0 instructions: 180000000 cycles: 49078132 heartbeat IPC: 3.664 cumulative IPC: 3.666 (Simulation time: 00 hr 29 min 46 sec)
Heartbeat CPU 0 instructions: 190000004 cycles: 51805418 heartbeat IPC: 3.667 cumulative IPC: 3.666 (Simulation time: 00 hr 31 min 55 sec)
Heartbeat CPU 0 instructions: 200000002 cycles: 54532676 heartbeat IPC: 3.667 cumulative IPC: 3.666 (Simulation time: 00 hr 34 min 03 sec)
Heartbeat CPU 0 instructions: 210000003 cycles: 57259979 heartbeat IPC: 3.667 cumulative IPC: 3.666 (Simulation time: 00 hr 37 min 01 sec)
Heartbeat CPU 0 instructions: 220000001 cycles: 59987221 heartbeat IPC: 3.667 cumulative IPC: 3.666 (Simulation time: 00 hr 39 min 41 sec)
Heartbeat CPU 0 instructions: 230000002 cycles: 62715603 heartbeat IPC: 3.665 cumulative IPC: 3.666 (Simulation time: 00 hr 41 min 51 sec)
Heartbeat CPU 0 instructions: 240000003 cycles: 65442845 heartbeat IPC: 3.667 cumulative IPC: 3.666 (Simulation time: 00 hr 44 min 09 sec)
Heartbeat CPU 0 instructions: 250000004 cycles: 68170148 heartbeat IPC: 3.667 cumulative IPC: 3.666 (Simulation time: 00 hr 46 min 47 sec)
Heartbeat CPU 0 instructions: 260000000 cycles: 70897431 heartbeat IPC: 3.667 cumulative IPC: 3.666 (Simulation time: 00 hr 49 min 14 sec)
Heartbeat CPU 0 instructions: 270000003 cycles: 73625049 heartbeat IPC: 3.666 cumulative IPC: 3.666 (Simulation time: 00 hr 51 min 49 sec)
Heartbeat CPU 0 instructions: 280000001 cycles: 76352350 heartbeat IPC: 3.667 cumulative IPC: 3.666 (Simulation time: 00 hr 54 min 31 sec)
Heartbeat CPU 0 instructions: 290000000 cycles: 79079591 heartbeat IPC: 3.667 cumulative IPC: 3.666 (Simulation time: 00 hr 56 min 52 sec)
Heartbeat CPU 0 instructions: 300000001 cycles: 81806894 heartbeat IPC: 3.667 cumulative IPC: 3.666 (Simulation time: 00 hr 58 min 58 sec)
Heartbeat CPU 0 instructions: 310000000 cycles: 84534136 heartbeat IPC: 3.667 cumulative IPC: 3.666 (Simulation time: 01 hr 01 min 29 sec)
Heartbeat CPU 0 instructions: 320000000 cycles: 87261813 heartbeat IPC: 3.666 cumulative IPC: 3.666 (Simulation time: 01 hr 04 min 24 sec)
Heartbeat CPU 0 instructions: 330000001 cycles: 89989109 heartbeat IPC: 3.667 cumulative IPC: 3.666 (Simulation time: 01 hr 06 min 53 sec)
Heartbeat CPU 0 instructions: 340000002 cycles: 92716356 heartbeat IPC: 3.667 cumulative IPC: 3.666 (Simulation time: 01 hr 08 min 58 sec)
Heartbeat CPU 0 instructions: 350000003 cycles: 95443659 heartbeat IPC: 3.667 cumulative IPC: 3.666 (Simulation time: 01 hr 11 min 05 sec)
Heartbeat CPU 0 instructions: 360000001 cycles: 98172089 heartbeat IPC: 3.665 cumulative IPC: 3.666 (Simulation time: 01 hr 13 min 11 sec)
Heartbeat CPU 0 instructions: 370000002 cycles: 100899393 heartbeat IPC: 3.667 cumulative IPC: 3.666 (Simulation time: 01 hr 16 min 00 sec)
Heartbeat CPU 0 instructions: 380000001 cycles: 103626647 heartbeat IPC: 3.667 cumulative IPC: 3.666 (Simulation time: 01 hr 18 min 34 sec)
Heartbeat CPU 0 instructions: 390000004 cycles: 106353936 heartbeat IPC: 3.667 cumulative IPC: 3.666 (Simulation time: 01 hr 20 min 54 sec)
Heartbeat CPU 0 instructions: 400000000 cycles: 109081236 heartbeat IPC: 3.667 cumulative IPC: 3.666 (Simulation time: 01 hr 23 min 02 sec)
Heartbeat CPU 0 instructions: 410000003 cycles: 111808985 heartbeat IPC: 3.666 cumulative IPC: 3.666 (Simulation time: 01 hr 25 min 12 sec)
Heartbeat CPU 0 instructions: 420000003 cycles: 119386005 heartbeat IPC: 1.32 cumulative IPC: 3.498 (Simulation time: 01 hr 30 min 23 sec)
Heartbeat CPU 0 instructions: 430000002 cycles: 138434393 heartbeat IPC: 0.525 cumulative IPC: 3.045 (Simulation time: 01 hr 40 min 38 sec)
Heartbeat CPU 0 instructions: 440000004 cycles: 157464024 heartbeat IPC: 0.5255 cumulative IPC: 2.711 (Simulation time: 01 hr 51 min 14 sec)
Heartbeat CPU 0 instructions: 450000000 cycles: 176505228 heartbeat IPC: 0.5252 cumulative IPC: 2.456 (Simulation time: 02 hr 01 min 25 sec)
Heartbeat CPU 0 instructions: 460000002 cycles: 195459288 heartbeat IPC: 0.5276 cumulative IPC: 2.255 (Simulation time: 02 hr 11 min 26 sec)
Heartbeat CPU 0 instructions: 470000003 cycles: 214488790 heartbeat IPC: 0.5255 cumulative IPC: 2.091 (Simulation time: 02 hr 21 min 34 sec)
Heartbeat CPU 0 instructions: 480000003 cycles: 233477591 heartbeat IPC: 0.5266 cumulative IPC: 1.956 (Simulation time: 02 hr 32 min 35 sec)
Heartbeat CPU 0 instructions: 490000004 cycles: 252469870 heartbeat IPC: 0.5265 cumulative IPC: 1.842 (Simulation time: 02 hr 43 min 36 sec)
Heartbeat CPU 0 instructions: 500000003 cycles: 271488007 heartbeat IPC: 0.5258 cumulative IPC: 1.745 (Simulation time: 02 hr 54 min 58 sec)
Heartbeat CPU 0 instructions: 510000002 cycles: 290484321 heartbeat IPC: 0.5264 cumulative IPC: 1.661 (Simulation time: 03 hr 05 min 56 sec)
Heartbeat CPU 0 instructions: 520000003 cycles: 309502968 heartbeat IPC: 0.5258 cumulative IPC: 1.588 (Simulation time: 03 hr 16 min 57 sec)
Heartbeat CPU 0 instructions: 530000004 cycles: 328457064 heartbeat IPC: 0.5276 cumulative IPC: 1.525 (Simulation time: 03 hr 28 min 10 sec)
Heartbeat CPU 0 instructions: 540000004 cycles: 347424490 heartbeat IPC: 0.5272 cumulative IPC: 1.468 (Simulation time: 03 hr 36 min 06 sec)
Heartbeat CPU 0 instructions: 550000000 cycles: 366455006 heartbeat IPC: 0.5255 cumulative IPC: 1.417 (Simulation time: 03 hr 39 min 33 sec)
Heartbeat CPU 0 instructions: 560000002 cycles: 385465120 heartbeat IPC: 0.526 cumulative IPC: 1.372 (Simulation time: 03 hr 42 min 36 sec)
Heartbeat CPU 0 instructions: 570000002 cycles: 404471247 heartbeat IPC: 0.5261 cumulative IPC: 1.33 (Simulation time: 03 hr 45 min 42 sec)
Heartbeat CPU 0 instructions: 580000004 cycles: 423494427 heartbeat IPC: 0.5257 cumulative IPC: 1.293 (Simulation time: 03 hr 49 min 00 sec)
Heartbeat CPU 0 instructions: 590000000 cycles: 442508608 heartbeat IPC: 0.5259 cumulative IPC: 1.259 (Simulation time: 03 hr 52 min 14 sec)
*** Reached end of trace: (0, "traces/l1l2l3cache.champsimtrace")
Heartbeat CPU 0 instructions: 600000000 cycles: 461513911 heartbeat IPC: 0.5262 cumulative IPC: 1.228 (Simulation time: 03 hr 55 min 22 sec)
Heartbeat CPU 0 instructions: 610000004 cycles: 470472423 heartbeat IPC: 1.116 cumulative IPC: 1.226 (Simulation time: 03 hr 56 min 54 sec)
Heartbeat CPU 0 instructions: 620000001 cycles: 485918122 heartbeat IPC: 0.6474 cumulative IPC: 1.207 (Simulation time: 03 hr 59 min 17 sec)
Heartbeat CPU 0 instructions: 630000000 cycles: 501326272 heartbeat IPC: 0.649 cumulative IPC: 1.189 (Simulation time: 04 hr 01 min 37 sec)
Heartbeat CPU 0 instructions: 640000000 cycles: 508635961 heartbeat IPC: 1.368 cumulative IPC: 1.192 (Simulation time: 04 hr 03 min 04 sec)
Heartbeat CPU 0 instructions: 650000003 cycles: 511363233 heartbeat IPC: 3.667 cumulative IPC: 1.205 (Simulation time: 04 hr 03 min 47 sec)
Simulation finished CPU 0 instructions: 600000000 cycles: 497742632 cumulative IPC: 1.205 (Simulation time: 04 hr 03 min 47 sec)
Simulation complete CPU 0 instructions: 600000000 cycles: 497742632 cumulative IPC: 1.205 (Simulation time: 04 hr 03 min 47 sec)

ChampSim completed all CPUs

=== Simulation ===
CPU 0 runs traces/l1l2l3cache.champsimtrace
Region of Interest Statistics

CPU 0 cumulative IPC: 1.205 instructions: 600000000 cycles: 497742632
CPU 0 Branch Prediction Accuracy: 99.34% MPKI: 1.413 Average ROB Occupancy at Mispredict: 143.3
Branch type MPKI
BRANCH_DIRECT_JUMP: 8.5e-05
BRANCH_INDIRECT: 0.000237
BRANCH_CONDITIONAL: 1.41
BRANCH_DIRECT_CALL: 5e-06
BRANCH_INDIRECT_CALL: 4.67e-05
BRANCH_RETURN: 3.67e-05

LLC TOTAL        ACCESS:    3095789 HIT:     253837 MISS:    2841952
LLC LOAD         ACCESS:    1954444 HIT:     158897 MISS:    1795547
LLC RFO          ACCESS:     561712 HIT:      44190 MISS:     517522
LLC PREFETCH     ACCESS:       6322 HIT:       5281 MISS:       1041
LLC WRITE        ACCESS:     562065 HIT:      45008 MISS:     517057
LLC TRANSLATION  ACCESS:      11246 HIT:        461 MISS:      10785
LLC PREFETCH REQUESTED:       6322 ISSUED:       6322 USEFUL:        407 USELESS:         38
LLC AVERAGE MISS LATENCY: 571.4 cycles
cpu0_DTLB TOTAL        ACCESS:  131752775 HIT:  129737914 MISS:    2014861
cpu0_DTLB LOAD         ACCESS:  131752775 HIT:  129737914 MISS:    2014861
cpu0_DTLB RFO          ACCESS:          0 HIT:          0 MISS:          0
cpu0_DTLB PREFETCH     ACCESS:          0 HIT:          0 MISS:          0
cpu0_DTLB WRITE        ACCESS:          0 HIT:          0 MISS:          0
cpu0_DTLB TRANSLATION  ACCESS:          0 HIT:          0 MISS:          0
cpu0_DTLB PREFETCH REQUESTED:          0 ISSUED:          0 USEFUL:          0 USELESS:          0
cpu0_DTLB AVERAGE MISS LATENCY: 20.23 cycles
cpu0_ITLB TOTAL        ACCESS:       4975 HIT:       4752 MISS:        223
cpu0_ITLB LOAD         ACCESS:       4975 HIT:       4752 MISS:        223
cpu0_ITLB RFO          ACCESS:          0 HIT:          0 MISS:          0
cpu0_ITLB PREFETCH     ACCESS:          0 HIT:          0 MISS:          0
cpu0_ITLB WRITE        ACCESS:          0 HIT:          0 MISS:          0
cpu0_ITLB TRANSLATION  ACCESS:          0 HIT:          0 MISS:          0
cpu0_ITLB PREFETCH REQUESTED:          0 ISSUED:          0 USEFUL:          0 USELESS:          0
cpu0_ITLB AVERAGE MISS LATENCY: 89.83 cycles
cpu0_L1D TOTAL        ACCESS:  179302134 HIT:  168046298 MISS:   11255836
cpu0_L1D LOAD         ACCESS:   70978391 HIT:   68938919 MISS:    2039472
cpu0_L1D RFO          ACCESS:          0 HIT:          0 MISS:          0
cpu0_L1D PREFETCH     ACCESS:          0 HIT:          0 MISS:          0
cpu0_L1D WRITE        ACCESS:  107018252 HIT:   98548110 MISS:    8470142
cpu0_L1D TRANSLATION  ACCESS:    1305491 HIT:     559269 MISS:     746222
cpu0_L1D PREFETCH REQUESTED:          0 ISSUED:          0 USEFUL:          0 USELESS:          0
cpu0_L1D AVERAGE MISS LATENCY: 143.9 cycles
cpu0_L1I TOTAL        ACCESS:       5678 HIT:       3428 MISS:       2250
cpu0_L1I LOAD         ACCESS:       5678 HIT:       3428 MISS:       2250
cpu0_L1I RFO          ACCESS:          0 HIT:          0 MISS:          0
cpu0_L1I PREFETCH     ACCESS:          0 HIT:          0 MISS:          0
cpu0_L1I WRITE        ACCESS:          0 HIT:          0 MISS:          0
cpu0_L1I TRANSLATION  ACCESS:          0 HIT:          0 MISS:          0
cpu0_L1I PREFETCH REQUESTED:          0 ISSUED:          0 USEFUL:          0 USELESS:          0
cpu0_L1I AVERAGE MISS LATENCY: 158.3 cycles
cpu0_L2C TOTAL        ACCESS:    3903778 HIT:    1376359 MISS:    2527419
cpu0_L2C LOAD         ACCESS:    2009350 HIT:      54906 MISS:    1954444
cpu0_L2C RFO          ACCESS:     573546 HIT:      11834 MISS:     561712
cpu0_L2C PREFETCH     ACCESS:          0 HIT:          0 MISS:          0
cpu0_L2C WRITE        ACCESS:     574682 HIT:     574665 MISS:         17
cpu0_L2C TRANSLATION  ACCESS:     746200 HIT:     734954 MISS:      11246
cpu0_L2C PREFETCH REQUESTED:          0 ISSUED:          0 USEFUL:          0 USELESS:          0
cpu0_L2C AVERAGE MISS LATENCY: 663.3 cycles
cpu0_STLB TOTAL        ACCESS:    1982666 HIT:     677183 MISS:    1305483
cpu0_STLB LOAD         ACCESS:    1982666 HIT:     677183 MISS:    1305483
cpu0_STLB RFO          ACCESS:          0 HIT:          0 MISS:          0
cpu0_STLB PREFETCH     ACCESS:          0 HIT:          0 MISS:          0
cpu0_STLB WRITE        ACCESS:          0 HIT:          0 MISS:          0
cpu0_STLB TRANSLATION  ACCESS:          0 HIT:          0 MISS:          0
cpu0_STLB PREFETCH REQUESTED:          0 ISSUED:          0 USEFUL:          0 USELESS:          0
cpu0_STLB AVERAGE MISS LATENCY: 18.15 cycles

DRAM Statistics

Channel 0 RQ ROW_BUFFER_HIT:      88044
  ROW_BUFFER_MISS:    2235717
 AVG DBUS CONGESTED CYCLE: 3.945
WQ ROW_BUFFER_HIT: Channel 0 
  ROW_BUFFER_MISS:     174860
  FULL:     342659
