WARNING: physical memory size is smaller than virtual memory size.

*** ChampSim Multicore Out-of-Order Simulator ***
Warmup Instructions: 50000000
Simulation Instructions: 600000000
Number of CPUs: 1
Page size: 4096

Off-chip DRAM Size: 4 GiB Channels: 1 Width: 64-bit Data Race: 3200 MT/s
Heartbeat CPU 0 instructions: 10000004 cycles: 2777663 heartbeat IPC: 3.6 cumulative IPC: 3.6 (Simulation time: 00 hr 00 min 42 sec)
Heartbeat CPU 0 instructions: 20000001 cycles: 5634805 heartbeat IPC: 3.5 cumulative IPC: 3.549 (Simulation time: 00 hr 01 min 24 sec)
Heartbeat CPU 0 instructions: 30000000 cycles: 8491948 heartbeat IPC: 3.5 cumulative IPC: 3.533 (Simulation time: 00 hr 02 min 10 sec)
Heartbeat CPU 0 instructions: 40000003 cycles: 11120601 heartbeat IPC: 3.804 cumulative IPC: 3.597 (Simulation time: 00 hr 02 min 49 sec)
Heartbeat CPU 0 instructions: 50000003 cycles: 13620601 heartbeat IPC: 4 cumulative IPC: 3.671 (Simulation time: 00 hr 03 min 29 sec)
Warmup finished CPU 0 instructions: 50000003 cycles: 13620602 cumulative IPC: 3.671 (Simulation time: 00 hr 03 min 29 sec)
Warmup complete CPU 0 instructions: 50000003 cycles: 13620602 cumulative IPC: 3.671 (Simulation time: 00 hr 03 min 29 sec)
Heartbeat CPU 0 instructions: 60000002 cycles: 16295256 heartbeat IPC: 3.739 cumulative IPC: 3.739 (Simulation time: 00 hr 04 min 13 sec)
Heartbeat CPU 0 instructions: 70000001 cycles: 18969955 heartbeat IPC: 3.739 cumulative IPC: 3.739 (Simulation time: 00 hr 04 min 54 sec)
Heartbeat CPU 0 instructions: 80000000 cycles: 21644609 heartbeat IPC: 3.739 cumulative IPC: 3.739 (Simulation time: 00 hr 05 min 34 sec)
Heartbeat CPU 0 instructions: 90000003 cycles: 24319671 heartbeat IPC: 3.738 cumulative IPC: 3.739 (Simulation time: 00 hr 06 min 15 sec)
Heartbeat CPU 0 instructions: 100000003 cycles: 26994326 heartbeat IPC: 3.739 cumulative IPC: 3.739 (Simulation time: 00 hr 06 min 56 sec)
Heartbeat CPU 0 instructions: 110000004 cycles: 29669027 heartbeat IPC: 3.739 cumulative IPC: 3.739 (Simulation time: 00 hr 07 min 35 sec)
Heartbeat CPU 0 instructions: 120000003 cycles: 32343710 heartbeat IPC: 3.739 cumulative IPC: 3.739 (Simulation time: 00 hr 08 min 14 sec)
Heartbeat CPU 0 instructions: 130000002 cycles: 35018380 heartbeat IPC: 3.739 cumulative IPC: 3.739 (Simulation time: 00 hr 08 min 55 sec)
Heartbeat CPU 0 instructions: 140000002 cycles: 37693455 heartbeat IPC: 3.738 cumulative IPC: 3.739 (Simulation time: 00 hr 09 min 35 sec)
Heartbeat CPU 0 instructions: 150000000 cycles: 40368110 heartbeat IPC: 3.739 cumulative IPC: 3.739 (Simulation time: 00 hr 10 min 15 sec)
Heartbeat CPU 0 instructions: 160000001 cycles: 43042811 heartbeat IPC: 3.739 cumulative IPC: 3.739 (Simulation time: 00 hr 10 min 55 sec)
Heartbeat CPU 0 instructions: 170000004 cycles: 45717465 heartbeat IPC: 3.739 cumulative IPC: 3.739 (Simulation time: 00 hr 11 min 34 sec)
Heartbeat CPU 0 instructions: 180000000 cycles: 48392545 heartbeat IPC: 3.738 cumulative IPC: 3.739 (Simulation time: 00 hr 12 min 19 sec)
Heartbeat CPU 0 instructions: 190000004 cycles: 51067244 heartbeat IPC: 3.739 cumulative IPC: 3.739 (Simulation time: 00 hr 13 min 05 sec)
Heartbeat CPU 0 instructions: 200000002 cycles: 53741901 heartbeat IPC: 3.739 cumulative IPC: 3.739 (Simulation time: 00 hr 13 min 48 sec)
Heartbeat CPU 0 instructions: 210000003 cycles: 56416602 heartbeat IPC: 3.739 cumulative IPC: 3.739 (Simulation time: 00 hr 14 min 34 sec)
Heartbeat CPU 0 instructions: 220000001 cycles: 59091255 heartbeat IPC: 3.739 cumulative IPC: 3.739 (Simulation time: 00 hr 15 min 15 sec)
Heartbeat CPU 0 instructions: 230000002 cycles: 61766329 heartbeat IPC: 3.738 cumulative IPC: 3.739 (Simulation time: 00 hr 15 min 56 sec)
Heartbeat CPU 0 instructions: 240000003 cycles: 64440983 heartbeat IPC: 3.739 cumulative IPC: 3.739 (Simulation time: 00 hr 16 min 37 sec)
Heartbeat CPU 0 instructions: 250000004 cycles: 67115685 heartbeat IPC: 3.739 cumulative IPC: 3.739 (Simulation time: 00 hr 17 min 21 sec)
Heartbeat CPU 0 instructions: 260000000 cycles: 69790381 heartbeat IPC: 3.739 cumulative IPC: 3.739 (Simulation time: 00 hr 18 min 04 sec)
Heartbeat CPU 0 instructions: 270000003 cycles: 72465394 heartbeat IPC: 3.738 cumulative IPC: 3.739 (Simulation time: 00 hr 18 min 44 sec)
Heartbeat CPU 0 instructions: 280000001 cycles: 75140093 heartbeat IPC: 3.739 cumulative IPC: 3.739 (Simulation time: 00 hr 19 min 24 sec)
Heartbeat CPU 0 instructions: 290000000 cycles: 77814747 heartbeat IPC: 3.739 cumulative IPC: 3.739 (Simulation time: 00 hr 20 min 09 sec)
Heartbeat CPU 0 instructions: 300000001 cycles: 80489449 heartbeat IPC: 3.739 cumulative IPC: 3.739 (Simulation time: 00 hr 20 min 49 sec)
Heartbeat CPU 0 instructions: 310000000 cycles: 83164103 heartbeat IPC: 3.739 cumulative IPC: 3.739 (Simulation time: 00 hr 21 min 28 sec)
Heartbeat CPU 0 instructions: 320000000 cycles: 85839177 heartbeat IPC: 3.738 cumulative IPC: 3.739 (Simulation time: 00 hr 22 min 18 sec)
Heartbeat CPU 0 instructions: 330000002 cycles: 88513875 heartbeat IPC: 3.739 cumulative IPC: 3.739 (Simulation time: 00 hr 23 min 27 sec)
Heartbeat CPU 0 instructions: 340000002 cycles: 91188531 heartbeat IPC: 3.739 cumulative IPC: 3.739 (Simulation time: 00 hr 24 min 32 sec)
Heartbeat CPU 0 instructions: 350000003 cycles: 93863233 heartbeat IPC: 3.739 cumulative IPC: 3.739 (Simulation time: 00 hr 25 min 32 sec)
Heartbeat CPU 0 instructions: 360000001 cycles: 96538249 heartbeat IPC: 3.738 cumulative IPC: 3.739 (Simulation time: 00 hr 26 min 30 sec)
Heartbeat CPU 0 instructions: 370000002 cycles: 99212950 heartbeat IPC: 3.739 cumulative IPC: 3.739 (Simulation time: 00 hr 27 min 26 sec)
Heartbeat CPU 0 instructions: 380000001 cycles: 101887617 heartbeat IPC: 3.739 cumulative IPC: 3.739 (Simulation time: 00 hr 28 min 19 sec)
Heartbeat CPU 0 instructions: 390000004 cycles: 104562304 heartbeat IPC: 3.739 cumulative IPC: 3.739 (Simulation time: 00 hr 29 min 10 sec)
Heartbeat CPU 0 instructions: 400000000 cycles: 107237002 heartbeat IPC: 3.739 cumulative IPC: 3.739 (Simulation time: 00 hr 30 min 00 sec)
Heartbeat CPU 0 instructions: 410000003 cycles: 109912033 heartbeat IPC: 3.738 cumulative IPC: 3.739 (Simulation time: 00 hr 30 min 53 sec)
Heartbeat CPU 0 instructions: 420000003 cycles: 118127278 heartbeat IPC: 1.217 cumulative IPC: 3.54 (Simulation time: 00 hr 32 min 38 sec)
Heartbeat CPU 0 instructions: 430000003 cycles: 140349036 heartbeat IPC: 0.45 cumulative IPC: 2.999 (Simulation time: 00 hr 36 min 47 sec)
Heartbeat CPU 0 instructions: 440000004 cycles: 159469710 heartbeat IPC: 0.523 cumulative IPC: 2.674 (Simulation time: 00 hr 40 min 24 sec)
Heartbeat CPU 0 instructions: 450000000 cycles: 178266507 heartbeat IPC: 0.532 cumulative IPC: 2.429 (Simulation time: 00 hr 43 min 49 sec)
Heartbeat CPU 0 instructions: 460000002 cycles: 197028307 heartbeat IPC: 0.533 cumulative IPC: 2.235 (Simulation time: 00 hr 47 min 17 sec)
Heartbeat CPU 0 instructions: 470000003 cycles: 215808661 heartbeat IPC: 0.5325 cumulative IPC: 2.077 (Simulation time: 00 hr 50 min 31 sec)
Heartbeat CPU 0 instructions: 480000003 cycles: 234569870 heartbeat IPC: 0.533 cumulative IPC: 1.946 (Simulation time: 00 hr 53 min 39 sec)
Heartbeat CPU 0 instructions: 490000004 cycles: 253326640 heartbeat IPC: 0.5331 cumulative IPC: 1.836 (Simulation time: 00 hr 56 min 42 sec)
Heartbeat CPU 0 instructions: 500000003 cycles: 272121492 heartbeat IPC: 0.5321 cumulative IPC: 1.741 (Simulation time: 00 hr 59 min 43 sec)
Heartbeat CPU 0 instructions: 510000002 cycles: 290875871 heartbeat IPC: 0.5332 cumulative IPC: 1.659 (Simulation time: 01 hr 02 min 42 sec)
Heartbeat CPU 0 instructions: 520000003 cycles: 309649949 heartbeat IPC: 0.5326 cumulative IPC: 1.588 (Simulation time: 01 hr 05 min 45 sec)
Heartbeat CPU 0 instructions: 530000003 cycles: 328401089 heartbeat IPC: 0.5333 cumulative IPC: 1.525 (Simulation time: 01 hr 08 min 46 sec)
Heartbeat CPU 0 instructions: 540000004 cycles: 347123522 heartbeat IPC: 0.5341 cumulative IPC: 1.469 (Simulation time: 01 hr 11 min 36 sec)
Heartbeat CPU 0 instructions: 550000000 cycles: 365904541 heartbeat IPC: 0.5325 cumulative IPC: 1.419 (Simulation time: 01 hr 13 min 53 sec)
Heartbeat CPU 0 instructions: 560000002 cycles: 384679442 heartbeat IPC: 0.5326 cumulative IPC: 1.374 (Simulation time: 01 hr 16 min 08 sec)
Heartbeat CPU 0 instructions: 570000002 cycles: 403467103 heartbeat IPC: 0.5323 cumulative IPC: 1.334 (Simulation time: 01 hr 18 min 33 sec)
Heartbeat CPU 0 instructions: 580000000 cycles: 422246618 heartbeat IPC: 0.5325 cumulative IPC: 1.297 (Simulation time: 01 hr 21 min 05 sec)
Heartbeat CPU 0 instructions: 590000000 cycles: 441015045 heartbeat IPC: 0.5328 cumulative IPC: 1.263 (Simulation time: 01 hr 23 min 31 sec)
*** Reached end of trace: (0, "traces/l1l2l3cache.champsimtrace")
Heartbeat CPU 0 instructions: 600000000 cycles: 459752331 heartbeat IPC: 0.5337 cumulative IPC: 1.233 (Simulation time: 01 hr 25 min 52 sec)
Heartbeat CPU 0 instructions: 610000002 cycles: 471069532 heartbeat IPC: 0.8836 cumulative IPC: 1.224 (Simulation time: 01 hr 27 min 15 sec)
Heartbeat CPU 0 instructions: 620000003 cycles: 486982122 heartbeat IPC: 0.6284 cumulative IPC: 1.204 (Simulation time: 01 hr 29 min 09 sec)
Heartbeat CPU 0 instructions: 630000004 cycles: 502510912 heartbeat IPC: 0.644 cumulative IPC: 1.186 (Simulation time: 01 hr 31 min 00 sec)
Heartbeat CPU 0 instructions: 640000000 cycles: 509844984 heartbeat IPC: 1.363 cumulative IPC: 1.189 (Simulation time: 01 hr 32 min 11 sec)
Heartbeat CPU 0 instructions: 650000003 cycles: 512520510 heartbeat IPC: 3.738 cumulative IPC: 1.203 (Simulation time: 01 hr 32 min 52 sec)
Simulation finished CPU 0 instructions: 600000000 cycles: 498899909 cumulative IPC: 1.203 (Simulation time: 01 hr 32 min 52 sec)
Simulation complete CPU 0 instructions: 600000000 cycles: 498899909 cumulative IPC: 1.203 (Simulation time: 01 hr 32 min 52 sec)

ChampSim completed all CPUs

=== Simulation ===
CPU 0 runs traces/l1l2l3cache.champsimtrace
Region of Interest Statistics

CPU 0 cumulative IPC: 1.203 instructions: 600000000 cycles: 498899909
CPU 0 Branch Prediction Accuracy: 99.5% MPKI: 1.069 Average ROB Occupancy at Mispredict: 148.9
Branch type MPKI
BRANCH_DIRECT_JUMP: 8.5e-05
BRANCH_INDIRECT: 0.000237
BRANCH_CONDITIONAL: 1.07
BRANCH_DIRECT_CALL: 5e-06
BRANCH_INDIRECT_CALL: 4.67e-05
BRANCH_RETURN: 3.67e-05

LLC TOTAL        ACCESS:    3095810 HIT:     756549 MISS:    2339261
LLC LOAD         ACCESS:    1954442 HIT:     183562 MISS:    1770880
LLC RFO          ACCESS:     561712 HIT:       1468 MISS:     560244
LLC PREFETCH     ACCESS:       6345 HIT:       1748 MISS:       4597
LLC WRITE        ACCESS:     562064 HIT:     561933 MISS:        131
LLC TRANSLATION  ACCESS:      11247 HIT:       7838 MISS:       3409
LLC PREFETCH REQUESTED:       6345 ISSUED:       6345 USEFUL:       2265 USELESS:        136
LLC AVERAGE MISS LATENCY: 703.4 cycles
cpu0_DTLB TOTAL        ACCESS:  130569595 HIT:  128554727 MISS:    2014868
cpu0_DTLB LOAD         ACCESS:  130569595 HIT:  128554727 MISS:    2014868
cpu0_DTLB RFO          ACCESS:          0 HIT:          0 MISS:          0
cpu0_DTLB PREFETCH     ACCESS:          0 HIT:          0 MISS:          0
cpu0_DTLB WRITE        ACCESS:          0 HIT:          0 MISS:          0
cpu0_DTLB TRANSLATION  ACCESS:          0 HIT:          0 MISS:          0
cpu0_DTLB PREFETCH REQUESTED:          0 ISSUED:          0 USEFUL:          0 USELESS:          0
cpu0_DTLB AVERAGE MISS LATENCY: 17.82 cycles
cpu0_ITLB TOTAL        ACCESS:       5020 HIT:       4791 MISS:        229
cpu0_ITLB LOAD         ACCESS:       5020 HIT:       4791 MISS:        229
cpu0_ITLB RFO          ACCESS:          0 HIT:          0 MISS:          0
cpu0_ITLB PREFETCH     ACCESS:          0 HIT:          0 MISS:          0
cpu0_ITLB WRITE        ACCESS:          0 HIT:          0 MISS:          0
cpu0_ITLB TRANSLATION  ACCESS:          0 HIT:          0 MISS:          0
cpu0_ITLB PREFETCH REQUESTED:          0 ISSUED:          0 USEFUL:          0 USELESS:          0
cpu0_ITLB AVERAGE MISS LATENCY: 242.3 cycles
cpu0_L1D TOTAL        ACCESS:  178078290 HIT:  166491015 MISS:   11587275
cpu0_L1D LOAD         ACCESS:   69777378 HIT:   67729365 MISS:    2048013
cpu0_L1D RFO          ACCESS:          0 HIT:          0 MISS:          0
cpu0_L1D PREFETCH     ACCESS:          0 HIT:          0 MISS:          0
cpu0_L1D WRITE        ACCESS:  106995411 HIT:   98202399 MISS:    8793012
cpu0_L1D TRANSLATION  ACCESS:    1305501 HIT:     559251 MISS:     746250
cpu0_L1D PREFETCH REQUESTED:          0 ISSUED:          0 USEFUL:          0 USELESS:          0
cpu0_L1D AVERAGE MISS LATENCY: 141 cycles
cpu0_L1I TOTAL        ACCESS:       5731 HIT:       3250 MISS:       2481
cpu0_L1I LOAD         ACCESS:       5731 HIT:       3250 MISS:       2481
cpu0_L1I RFO          ACCESS:          0 HIT:          0 MISS:          0
cpu0_L1I PREFETCH     ACCESS:          0 HIT:          0 MISS:          0
cpu0_L1I WRITE        ACCESS:          0 HIT:          0 MISS:          0
cpu0_L1I TRANSLATION  ACCESS:          0 HIT:          0 MISS:          0
cpu0_L1I PREFETCH REQUESTED:          0 ISSUED:          0 USEFUL:          0 USELESS:          0
cpu0_L1I AVERAGE MISS LATENCY: 296.5 cycles
cpu0_L2C TOTAL        ACCESS:    3903773 HIT:    1376353 MISS:    2527420
cpu0_L2C LOAD         ACCESS:    2009350 HIT:      54908 MISS:    1954442
cpu0_L2C RFO          ACCESS:     573510 HIT:      11798 MISS:     561712
cpu0_L2C PREFETCH     ACCESS:          0 HIT:          0 MISS:          0
cpu0_L2C WRITE        ACCESS:     574676 HIT:     574657 MISS:         19
cpu0_L2C TRANSLATION  ACCESS:     746237 HIT:     734990 MISS:      11247
cpu0_L2C PREFETCH REQUESTED:          0 ISSUED:          0 USEFUL:          0 USELESS:          0
cpu0_L2C AVERAGE MISS LATENCY: 671.7 cycles
cpu0_STLB TOTAL        ACCESS:    1982641 HIT:     677148 MISS:    1305493
cpu0_STLB LOAD         ACCESS:    1982641 HIT:     677148 MISS:    1305493
cpu0_STLB RFO          ACCESS:          0 HIT:          0 MISS:          0
cpu0_STLB PREFETCH     ACCESS:          0 HIT:          0 MISS:          0
cpu0_STLB WRITE        ACCESS:          0 HIT:          0 MISS:          0
cpu0_STLB TRANSLATION  ACCESS:          0 HIT:          0 MISS:          0
cpu0_STLB PREFETCH REQUESTED:          0 ISSUED:          0 USEFUL:          0 USELESS:          0
cpu0_STLB AVERAGE MISS LATENCY: 14.46 cycles

DRAM Statistics

Channel 0 RQ ROW_BUFFER_HIT:     109745
  ROW_BUFFER_MISS:    2225963
 AVG DBUS CONGESTED CYCLE: 3.948
WQ ROW_BUFFER_HIT: Channel 0 
  ROW_BUFFER_MISS:     150787
  FULL:     411170
