WARNING: physical memory size is smaller than virtual memory size.

*** ChampSim Multicore Out-of-Order Simulator ***
Warmup Instructions: 50000000
Simulation Instructions: 600000000
Number of CPUs: 1
Page size: 4096

Off-chip DRAM Size: 4 GiB Channels: 1 Width: 64-bit Data Race: 3200 MT/s
Heartbeat CPU 0 instructions: 10000000 cycles: 2565785 heartbeat IPC: 3.897 cumulative IPC: 3.897 (Simulation time: 00 hr 00 min 33 sec)
Heartbeat CPU 0 instructions: 20000000 cycles: 5131274 heartbeat IPC: 3.898 cumulative IPC: 3.898 (Simulation time: 00 hr 01 min 11 sec)
Heartbeat CPU 0 instructions: 30000000 cycles: 7631274 heartbeat IPC: 4 cumulative IPC: 3.931 (Simulation time: 00 hr 01 min 47 sec)
Heartbeat CPU 0 instructions: 40000000 cycles: 10131274 heartbeat IPC: 4 cumulative IPC: 3.948 (Simulation time: 00 hr 02 min 19 sec)
Heartbeat CPU 0 instructions: 50000000 cycles: 12631274 heartbeat IPC: 4 cumulative IPC: 3.958 (Simulation time: 00 hr 02 min 51 sec)
Warmup finished CPU 0 instructions: 50000000 cycles: 12631275 cumulative IPC: 3.958 (Simulation time: 00 hr 02 min 51 sec)
Warmup complete CPU 0 instructions: 50000000 cycles: 12631275 cumulative IPC: 3.958 (Simulation time: 00 hr 02 min 51 sec)
Heartbeat CPU 0 instructions: 60000000 cycles: 16408407 heartbeat IPC: 2.648 cumulative IPC: 2.648 (Simulation time: 00 hr 03 min 36 sec)
Heartbeat CPU 0 instructions: 70000000 cycles: 20186549 heartbeat IPC: 2.647 cumulative IPC: 2.647 (Simulation time: 00 hr 04 min 17 sec)
Heartbeat CPU 0 instructions: 80000004 cycles: 23962683 heartbeat IPC: 2.648 cumulative IPC: 2.648 (Simulation time: 00 hr 04 min 57 sec)
Heartbeat CPU 0 instructions: 90000000 cycles: 27741364 heartbeat IPC: 2.646 cumulative IPC: 2.647 (Simulation time: 00 hr 05 min 37 sec)
Heartbeat CPU 0 instructions: 100000003 cycles: 31520115 heartbeat IPC: 2.646 cumulative IPC: 2.647 (Simulation time: 00 hr 06 min 21 sec)
Heartbeat CPU 0 instructions: 110000001 cycles: 35297461 heartbeat IPC: 2.647 cumulative IPC: 2.647 (Simulation time: 00 hr 07 min 02 sec)
Heartbeat CPU 0 instructions: 120000001 cycles: 39072822 heartbeat IPC: 2.649 cumulative IPC: 2.647 (Simulation time: 00 hr 07 min 53 sec)
Heartbeat CPU 0 instructions: 130000001 cycles: 42846915 heartbeat IPC: 2.65 cumulative IPC: 2.648 (Simulation time: 00 hr 08 min 45 sec)
Heartbeat CPU 0 instructions: 140000001 cycles: 46623966 heartbeat IPC: 2.648 cumulative IPC: 2.648 (Simulation time: 00 hr 10 min 07 sec)
Heartbeat CPU 0 instructions: 150000000 cycles: 50400439 heartbeat IPC: 2.648 cumulative IPC: 2.648 (Simulation time: 00 hr 11 min 37 sec)
Heartbeat CPU 0 instructions: 160000002 cycles: 54178785 heartbeat IPC: 2.647 cumulative IPC: 2.648 (Simulation time: 00 hr 13 min 08 sec)
Heartbeat CPU 0 instructions: 170000000 cycles: 57955645 heartbeat IPC: 2.648 cumulative IPC: 2.648 (Simulation time: 00 hr 14 min 40 sec)
Heartbeat CPU 0 instructions: 180000004 cycles: 61730591 heartbeat IPC: 2.649 cumulative IPC: 2.648 (Simulation time: 00 hr 16 min 09 sec)
Heartbeat CPU 0 instructions: 190000001 cycles: 65506668 heartbeat IPC: 2.648 cumulative IPC: 2.648 (Simulation time: 00 hr 17 min 39 sec)
Heartbeat CPU 0 instructions: 200000001 cycles: 69281672 heartbeat IPC: 2.649 cumulative IPC: 2.648 (Simulation time: 00 hr 19 min 08 sec)
Heartbeat CPU 0 instructions: 210000004 cycles: 73057808 heartbeat IPC: 2.648 cumulative IPC: 2.648 (Simulation time: 00 hr 20 min 50 sec)
Heartbeat CPU 0 instructions: 220000003 cycles: 76833732 heartbeat IPC: 2.648 cumulative IPC: 2.648 (Simulation time: 00 hr 22 min 30 sec)
Heartbeat CPU 0 instructions: 230000001 cycles: 80247681 heartbeat IPC: 2.929 cumulative IPC: 2.662 (Simulation time: 00 hr 24 min 15 sec)
Heartbeat CPU 0 instructions: 240000002 cycles: 83053677 heartbeat IPC: 3.564 cumulative IPC: 2.698 (Simulation time: 00 hr 25 min 51 sec)
Heartbeat CPU 0 instructions: 250000003 cycles: 86834478 heartbeat IPC: 2.645 cumulative IPC: 2.695 (Simulation time: 00 hr 27 min 24 sec)
Heartbeat CPU 0 instructions: 260000002 cycles: 90610677 heartbeat IPC: 2.648 cumulative IPC: 2.693 (Simulation time: 00 hr 29 min 00 sec)
Heartbeat CPU 0 instructions: 270000004 cycles: 94386840 heartbeat IPC: 2.648 cumulative IPC: 2.691 (Simulation time: 00 hr 30 min 31 sec)
Heartbeat CPU 0 instructions: 280000000 cycles: 98163901 heartbeat IPC: 2.648 cumulative IPC: 2.689 (Simulation time: 00 hr 32 min 10 sec)
Heartbeat CPU 0 instructions: 290000002 cycles: 101939934 heartbeat IPC: 2.648 cumulative IPC: 2.687 (Simulation time: 00 hr 32 min 58 sec)
Heartbeat CPU 0 instructions: 300000004 cycles: 105714548 heartbeat IPC: 2.649 cumulative IPC: 2.686 (Simulation time: 00 hr 33 min 47 sec)
Heartbeat CPU 0 instructions: 310000002 cycles: 109490923 heartbeat IPC: 2.648 cumulative IPC: 2.684 (Simulation time: 00 hr 34 min 35 sec)
Heartbeat CPU 0 instructions: 320000004 cycles: 113268149 heartbeat IPC: 2.647 cumulative IPC: 2.683 (Simulation time: 00 hr 35 min 23 sec)
Heartbeat CPU 0 instructions: 330000003 cycles: 117045271 heartbeat IPC: 2.648 cumulative IPC: 2.682 (Simulation time: 00 hr 36 min 10 sec)
Heartbeat CPU 0 instructions: 340000000 cycles: 120821980 heartbeat IPC: 2.648 cumulative IPC: 2.68 (Simulation time: 00 hr 36 min 59 sec)
Heartbeat CPU 0 instructions: 350000002 cycles: 124599070 heartbeat IPC: 2.648 cumulative IPC: 2.679 (Simulation time: 00 hr 37 min 53 sec)
Heartbeat CPU 0 instructions: 360000003 cycles: 128375683 heartbeat IPC: 2.648 cumulative IPC: 2.678 (Simulation time: 00 hr 38 min 49 sec)
Heartbeat CPU 0 instructions: 370000004 cycles: 132150962 heartbeat IPC: 2.649 cumulative IPC: 2.677 (Simulation time: 00 hr 39 min 38 sec)
Heartbeat CPU 0 instructions: 380000002 cycles: 135926002 heartbeat IPC: 2.649 cumulative IPC: 2.677 (Simulation time: 00 hr 40 min 27 sec)
Heartbeat CPU 0 instructions: 390000000 cycles: 139699149 heartbeat IPC: 2.65 cumulative IPC: 2.676 (Simulation time: 00 hr 41 min 14 sec)
Heartbeat CPU 0 instructions: 400000001 cycles: 143475248 heartbeat IPC: 2.648 cumulative IPC: 2.675 (Simulation time: 00 hr 42 min 01 sec)
Heartbeat CPU 0 instructions: 410000003 cycles: 147251521 heartbeat IPC: 2.648 cumulative IPC: 2.674 (Simulation time: 00 hr 42 min 48 sec)
Heartbeat CPU 0 instructions: 420000000 cycles: 151029409 heartbeat IPC: 2.647 cumulative IPC: 2.673 (Simulation time: 00 hr 43 min 38 sec)
Heartbeat CPU 0 instructions: 430000001 cycles: 154807152 heartbeat IPC: 2.647 cumulative IPC: 2.673 (Simulation time: 00 hr 44 min 29 sec)
Heartbeat CPU 0 instructions: 440000002 cycles: 158582303 heartbeat IPC: 2.649 cumulative IPC: 2.672 (Simulation time: 00 hr 45 min 17 sec)
Heartbeat CPU 0 instructions: 450000001 cycles: 161431119 heartbeat IPC: 3.51 cumulative IPC: 2.688 (Simulation time: 00 hr 46 min 07 sec)
Heartbeat CPU 0 instructions: 460000002 cycles: 164226750 heartbeat IPC: 3.577 cumulative IPC: 2.705 (Simulation time: 00 hr 46 min 58 sec)
Heartbeat CPU 0 instructions: 470000004 cycles: 168001242 heartbeat IPC: 2.649 cumulative IPC: 2.703 (Simulation time: 00 hr 47 min 49 sec)
Heartbeat CPU 0 instructions: 480000000 cycles: 171778390 heartbeat IPC: 2.647 cumulative IPC: 2.702 (Simulation time: 00 hr 48 min 40 sec)
Heartbeat CPU 0 instructions: 490000000 cycles: 175554596 heartbeat IPC: 2.648 cumulative IPC: 2.701 (Simulation time: 00 hr 49 min 30 sec)
Heartbeat CPU 0 instructions: 500000002 cycles: 179330180 heartbeat IPC: 2.649 cumulative IPC: 2.699 (Simulation time: 00 hr 50 min 22 sec)
Heartbeat CPU 0 instructions: 510000001 cycles: 183106642 heartbeat IPC: 2.648 cumulative IPC: 2.698 (Simulation time: 00 hr 51 min 10 sec)
Heartbeat CPU 0 instructions: 520000002 cycles: 186883157 heartbeat IPC: 2.648 cumulative IPC: 2.697 (Simulation time: 00 hr 52 min 02 sec)
Heartbeat CPU 0 instructions: 530000002 cycles: 190658543 heartbeat IPC: 2.649 cumulative IPC: 2.696 (Simulation time: 00 hr 52 min 52 sec)
Heartbeat CPU 0 instructions: 540000000 cycles: 194437198 heartbeat IPC: 2.646 cumulative IPC: 2.695 (Simulation time: 00 hr 53 min 41 sec)
Heartbeat CPU 0 instructions: 550000000 cycles: 198212577 heartbeat IPC: 2.649 cumulative IPC: 2.694 (Simulation time: 00 hr 54 min 27 sec)
Heartbeat CPU 0 instructions: 560000001 cycles: 201988688 heartbeat IPC: 2.648 cumulative IPC: 2.693 (Simulation time: 00 hr 55 min 17 sec)
Heartbeat CPU 0 instructions: 570000001 cycles: 205764543 heartbeat IPC: 2.648 cumulative IPC: 2.692 (Simulation time: 00 hr 56 min 08 sec)
Heartbeat CPU 0 instructions: 580000002 cycles: 209544777 heartbeat IPC: 2.645 cumulative IPC: 2.692 (Simulation time: 00 hr 57 min 00 sec)
Heartbeat CPU 0 instructions: 590000003 cycles: 213320792 heartbeat IPC: 2.648 cumulative IPC: 2.691 (Simulation time: 00 hr 57 min 50 sec)
*** Reached end of trace: (0, "traces/l1l2cache.champsimtrace")
Heartbeat CPU 0 instructions: 600000001 cycles: 217097098 heartbeat IPC: 2.648 cumulative IPC: 2.69 (Simulation time: 00 hr 58 min 40 sec)
Heartbeat CPU 0 instructions: 610000001 cycles: 223245171 heartbeat IPC: 1.627 cumulative IPC: 2.659 (Simulation time: 00 hr 59 min 56 sec)
Heartbeat CPU 0 instructions: 620000004 cycles: 226061835 heartbeat IPC: 3.55 cumulative IPC: 2.671 (Simulation time: 01 hr 00 min 47 sec)
Heartbeat CPU 0 instructions: 630000004 cycles: 229835469 heartbeat IPC: 2.65 cumulative IPC: 2.67 (Simulation time: 01 hr 01 min 49 sec)
Heartbeat CPU 0 instructions: 640000004 cycles: 233610933 heartbeat IPC: 2.649 cumulative IPC: 2.67 (Simulation time: 01 hr 02 min 46 sec)
Heartbeat CPU 0 instructions: 650000004 cycles: 237389368 heartbeat IPC: 2.647 cumulative IPC: 2.67 (Simulation time: 01 hr 03 min 38 sec)
Simulation finished CPU 0 instructions: 600000004 cycles: 224758094 cumulative IPC: 2.67 (Simulation time: 01 hr 03 min 38 sec)
Simulation complete CPU 0 instructions: 600000004 cycles: 224758094 cumulative IPC: 2.67 (Simulation time: 01 hr 03 min 38 sec)

ChampSim completed all CPUs

=== Simulation ===
CPU 0 runs traces/l1l2cache.champsimtrace
Region of Interest Statistics

CPU 0 cumulative IPC: 2.67 instructions: 600000004 cycles: 224758094
CPU 0 Branch Prediction Accuracy: 89.66% MPKI: 8.781 Average ROB Occupancy at Mispredict: 55.05
Branch type MPKI
BRANCH_DIRECT_JUMP: 9.5e-05
BRANCH_INDIRECT: 0.000282
BRANCH_CONDITIONAL: 8.78
BRANCH_DIRECT_CALL: 3.33e-06
BRANCH_INDIRECT_CALL: 4.83e-05
BRANCH_RETURN: 3.33e-05

LLC TOTAL        ACCESS:     259666 HIT:     213281 MISS:      46385
LLC LOAD         ACCESS:      59445 HIT:      49676 MISS:       9769
LLC RFO          ACCESS:      99912 HIT:      78065 MISS:      21847
LLC PREFETCH     ACCESS:          0 HIT:          0 MISS:          0
LLC WRITE        ACCESS:     100304 HIT:      85540 MISS:      14764
LLC TRANSLATION  ACCESS:          5 HIT:          0 MISS:          5
LLC PREFETCH REQUESTED:          0 ISSUED:          0 USEFUL:          0 USELESS:          0
LLC AVERAGE MISS LATENCY: 354.2 cycles
cpu0_DTLB TOTAL        ACCESS:   83165089 HIT:   83154313 MISS:      10776
cpu0_DTLB LOAD         ACCESS:   83165089 HIT:   83154313 MISS:      10776
cpu0_DTLB RFO          ACCESS:          0 HIT:          0 MISS:          0
cpu0_DTLB PREFETCH     ACCESS:          0 HIT:          0 MISS:          0
cpu0_DTLB WRITE        ACCESS:          0 HIT:          0 MISS:          0
cpu0_DTLB TRANSLATION  ACCESS:          0 HIT:          0 MISS:          0
cpu0_DTLB PREFETCH REQUESTED:          0 ISSUED:          0 USEFUL:          0 USELESS:          0
cpu0_DTLB AVERAGE MISS LATENCY: 5.924 cycles
cpu0_ITLB TOTAL        ACCESS:       5579 HIT:       5349 MISS:        230
cpu0_ITLB LOAD         ACCESS:       5579 HIT:       5349 MISS:        230
cpu0_ITLB RFO          ACCESS:          0 HIT:          0 MISS:          0
cpu0_ITLB PREFETCH     ACCESS:          0 HIT:          0 MISS:          0
cpu0_ITLB WRITE        ACCESS:          0 HIT:          0 MISS:          0
cpu0_ITLB TRANSLATION  ACCESS:          0 HIT:          0 MISS:          0
cpu0_ITLB PREFETCH REQUESTED:          0 ISSUED:          0 USEFUL:          0 USELESS:          0
cpu0_ITLB AVERAGE MISS LATENCY: 6.074 cycles
cpu0_L1D TOTAL        ACCESS:  106037929 HIT:  104608236 MISS:    1429693
cpu0_L1D LOAD         ACCESS:   46676334 HIT:   46323815 MISS:     352519
cpu0_L1D RFO          ACCESS:          0 HIT:          0 MISS:          0
cpu0_L1D PREFETCH     ACCESS:          0 HIT:          0 MISS:          0
cpu0_L1D WRITE        ACCESS:   59361337 HIT:   58284168 MISS:    1077169
cpu0_L1D TRANSLATION  ACCESS:        258 HIT:        253 MISS:          5
cpu0_L1D PREFETCH REQUESTED:          0 ISSUED:          0 USEFUL:          0 USELESS:          0
cpu0_L1D AVERAGE MISS LATENCY: 10.38 cycles
cpu0_L1I TOTAL        ACCESS:       6326 HIT:       3874 MISS:       2452
cpu0_L1I LOAD         ACCESS:       6326 HIT:       3874 MISS:       2452
cpu0_L1I RFO          ACCESS:          0 HIT:          0 MISS:          0
cpu0_L1I PREFETCH     ACCESS:          0 HIT:          0 MISS:          0
cpu0_L1I WRITE        ACCESS:          0 HIT:          0 MISS:          0
cpu0_L1I TRANSLATION  ACCESS:          0 HIT:          0 MISS:          0
cpu0_L1I PREFETCH REQUESTED:          0 ISSUED:          0 USEFUL:          0 USELESS:          0
cpu0_L1I AVERAGE MISS LATENCY: 556.7 cycles
cpu0_L2C TOTAL        ACCESS:     265736 HIT:     106351 MISS:     159385
cpu0_L2C LOAD         ACCESS:      63734 HIT:       4289 MISS:      59445
cpu0_L2C RFO          ACCESS:     100733 HIT:        821 MISS:      99912
cpu0_L2C PREFETCH     ACCESS:          0 HIT:          0 MISS:          0
cpu0_L2C WRITE        ACCESS:     101264 HIT:     101241 MISS:         23
cpu0_L2C TRANSLATION  ACCESS:          5 HIT:          0 MISS:          5
cpu0_L2C PREFETCH REQUESTED:          0 ISSUED:          0 USEFUL:          0 USELESS:          0
cpu0_L2C AVERAGE MISS LATENCY: 123.3 cycles
cpu0_STLB TOTAL        ACCESS:       3912 HIT:       3655 MISS:        257
cpu0_STLB LOAD         ACCESS:       3912 HIT:       3655 MISS:        257
cpu0_STLB RFO          ACCESS:          0 HIT:          0 MISS:          0
cpu0_STLB PREFETCH     ACCESS:          0 HIT:          0 MISS:          0
cpu0_STLB WRITE        ACCESS:          0 HIT:          0 MISS:          0
cpu0_STLB TRANSLATION  ACCESS:          0 HIT:          0 MISS:          0
cpu0_STLB PREFETCH REQUESTED:          0 ISSUED:          0 USEFUL:          0 USELESS:          0
cpu0_STLB AVERAGE MISS LATENCY: 218.6 cycles

DRAM Statistics

Channel 0 RQ ROW_BUFFER_HIT:      17859
  ROW_BUFFER_MISS:      13753
 AVG DBUS CONGESTED CYCLE: 3.938
WQ ROW_BUFFER_HIT: Channel 0 
  ROW_BUFFER_MISS:       3059
  FULL:       7486
