WARNING: physical memory size is smaller than virtual memory size.

*** ChampSim Multicore Out-of-Order Simulator ***
Warmup Instructions: 50000000
Simulation Instructions: 600000000
Number of CPUs: 1
Page size: 4096

CPU 0 Tage branch predictor
Off-chip DRAM Size: 4 GiB Channels: 1 Width: 64-bit Data Race: 3200 MT/s
Heartbeat CPU 0 instructions: 10000004 cycles: 2777663 heartbeat IPC: 3.6 cumulative IPC: 3.6 (Simulation time: 00 hr 02 min 20 sec)
Heartbeat CPU 0 instructions: 20000001 cycles: 5634805 heartbeat IPC: 3.5 cumulative IPC: 3.549 (Simulation time: 00 hr 04 min 37 sec)
Heartbeat CPU 0 instructions: 30000000 cycles: 8491948 heartbeat IPC: 3.5 cumulative IPC: 3.533 (Simulation time: 00 hr 07 min 36 sec)
Heartbeat CPU 0 instructions: 40000003 cycles: 11120601 heartbeat IPC: 3.804 cumulative IPC: 3.597 (Simulation time: 00 hr 10 min 19 sec)
Heartbeat CPU 0 instructions: 50000003 cycles: 13620601 heartbeat IPC: 4 cumulative IPC: 3.671 (Simulation time: 00 hr 12 min 24 sec)
Warmup finished CPU 0 instructions: 50000003 cycles: 13620602 cumulative IPC: 3.671 (Simulation time: 00 hr 12 min 24 sec)
Warmup complete CPU 0 instructions: 50000003 cycles: 13620602 cumulative IPC: 3.671 (Simulation time: 00 hr 12 min 24 sec)
Heartbeat CPU 0 instructions: 60000002 cycles: 16120603 heartbeat IPC: 4 cumulative IPC: 4 (Simulation time: 00 hr 15 min 12 sec)
Heartbeat CPU 0 instructions: 70000001 cycles: 18620602 heartbeat IPC: 4 cumulative IPC: 4 (Simulation time: 00 hr 18 min 31 sec)
Heartbeat CPU 0 instructions: 80000000 cycles: 21120601 heartbeat IPC: 4 cumulative IPC: 4 (Simulation time: 00 hr 21 min 18 sec)
Heartbeat CPU 0 instructions: 90000003 cycles: 23620910 heartbeat IPC: 4 cumulative IPC: 4 (Simulation time: 00 hr 24 min 40 sec)
Heartbeat CPU 0 instructions: 100000003 cycles: 26120911 heartbeat IPC: 4 cumulative IPC: 4 (Simulation time: 00 hr 27 min 22 sec)
Heartbeat CPU 0 instructions: 110000004 cycles: 28620912 heartbeat IPC: 4 cumulative IPC: 4 (Simulation time: 00 hr 30 min 05 sec)
Heartbeat CPU 0 instructions: 120000003 cycles: 31120911 heartbeat IPC: 4 cumulative IPC: 4 (Simulation time: 00 hr 32 min 56 sec)
Heartbeat CPU 0 instructions: 130000002 cycles: 33620910 heartbeat IPC: 4 cumulative IPC: 4 (Simulation time: 00 hr 36 min 16 sec)
Heartbeat CPU 0 instructions: 140000004 cycles: 36121217 heartbeat IPC: 4 cumulative IPC: 4 (Simulation time: 00 hr 39 min 09 sec)
Heartbeat CPU 0 instructions: 150000000 cycles: 38621217 heartbeat IPC: 4 cumulative IPC: 4 (Simulation time: 00 hr 41 min 43 sec)
Heartbeat CPU 0 instructions: 160000001 cycles: 41121218 heartbeat IPC: 4 cumulative IPC: 4 (Simulation time: 00 hr 44 min 23 sec)
Heartbeat CPU 0 instructions: 170000004 cycles: 43621218 heartbeat IPC: 4 cumulative IPC: 4 (Simulation time: 00 hr 47 min 51 sec)
Heartbeat CPU 0 instructions: 180000000 cycles: 46122046 heartbeat IPC: 3.999 cumulative IPC: 4 (Simulation time: 00 hr 50 min 54 sec)
Heartbeat CPU 0 instructions: 190000004 cycles: 48622047 heartbeat IPC: 4 cumulative IPC: 4 (Simulation time: 00 hr 53 min 31 sec)
Heartbeat CPU 0 instructions: 200000002 cycles: 51122047 heartbeat IPC: 4 cumulative IPC: 4 (Simulation time: 00 hr 55 min 49 sec)
Heartbeat CPU 0 instructions: 210000003 cycles: 53622048 heartbeat IPC: 4 cumulative IPC: 4 (Simulation time: 00 hr 59 min 15 sec)
Heartbeat CPU 0 instructions: 220000001 cycles: 56122047 heartbeat IPC: 4 cumulative IPC: 4 (Simulation time: 01 hr 02 min 17 sec)
Heartbeat CPU 0 instructions: 230000002 cycles: 58622353 heartbeat IPC: 4 cumulative IPC: 4 (Simulation time: 01 hr 05 min 03 sec)
Heartbeat CPU 0 instructions: 240000003 cycles: 61122353 heartbeat IPC: 4 cumulative IPC: 4 (Simulation time: 01 hr 07 min 22 sec)
Heartbeat CPU 0 instructions: 250000004 cycles: 63622354 heartbeat IPC: 4 cumulative IPC: 4 (Simulation time: 01 hr 10 min 50 sec)
Heartbeat CPU 0 instructions: 260000000 cycles: 66122354 heartbeat IPC: 4 cumulative IPC: 4 (Simulation time: 01 hr 13 min 35 sec)
Heartbeat CPU 0 instructions: 270000003 cycles: 68623183 heartbeat IPC: 3.999 cumulative IPC: 4 (Simulation time: 01 hr 16 min 09 sec)
Heartbeat CPU 0 instructions: 280000001 cycles: 71123182 heartbeat IPC: 4 cumulative IPC: 4 (Simulation time: 01 hr 19 min 33 sec)
Heartbeat CPU 0 instructions: 290000000 cycles: 73623182 heartbeat IPC: 4 cumulative IPC: 4 (Simulation time: 01 hr 22 min 23 sec)
Heartbeat CPU 0 instructions: 300000001 cycles: 76123183 heartbeat IPC: 4 cumulative IPC: 4 (Simulation time: 01 hr 25 min 09 sec)
Heartbeat CPU 0 instructions: 310000000 cycles: 78623183 heartbeat IPC: 4 cumulative IPC: 4 (Simulation time: 01 hr 28 min 24 sec)
Heartbeat CPU 0 instructions: 320000000 cycles: 81124165 heartbeat IPC: 3.998 cumulative IPC: 4 (Simulation time: 01 hr 31 min 44 sec)
Heartbeat CPU 0 instructions: 330000000 cycles: 83624163 heartbeat IPC: 4 cumulative IPC: 4 (Simulation time: 01 hr 34 min 36 sec)
Heartbeat CPU 0 instructions: 340000002 cycles: 86124164 heartbeat IPC: 4 cumulative IPC: 4 (Simulation time: 01 hr 37 min 09 sec)
Heartbeat CPU 0 instructions: 350000003 cycles: 88624165 heartbeat IPC: 4 cumulative IPC: 4 (Simulation time: 01 hr 40 min 42 sec)
Heartbeat CPU 0 instructions: 360000001 cycles: 91124472 heartbeat IPC: 4 cumulative IPC: 4 (Simulation time: 01 hr 43 min 39 sec)
Heartbeat CPU 0 instructions: 370000002 cycles: 93624473 heartbeat IPC: 4 cumulative IPC: 4 (Simulation time: 01 hr 46 min 24 sec)
Heartbeat CPU 0 instructions: 380000002 cycles: 96124472 heartbeat IPC: 4 cumulative IPC: 4 (Simulation time: 01 hr 49 min 42 sec)
Heartbeat CPU 0 instructions: 390000004 cycles: 98624473 heartbeat IPC: 4 cumulative IPC: 4 (Simulation time: 01 hr 52 min 41 sec)
Heartbeat CPU 0 instructions: 400000000 cycles: 101124473 heartbeat IPC: 4 cumulative IPC: 4 (Simulation time: 01 hr 55 min 49 sec)
Heartbeat CPU 0 instructions: 410000003 cycles: 103624779 heartbeat IPC: 4 cumulative IPC: 4 (Simulation time: 01 hr 58 min 53 sec)
Heartbeat CPU 0 instructions: 420000003 cycles: 111899715 heartbeat IPC: 1.208 cumulative IPC: 3.765 (Simulation time: 02 hr 04 min 31 sec)
Heartbeat CPU 0 instructions: 430000003 cycles: 133924571 heartbeat IPC: 0.454 cumulative IPC: 3.159 (Simulation time: 02 hr 17 min 47 sec)
Heartbeat CPU 0 instructions: 440000004 cycles: 152780864 heartbeat IPC: 0.5303 cumulative IPC: 2.803 (Simulation time: 02 hr 29 min 39 sec)
Heartbeat CPU 0 instructions: 450000001 cycles: 171609090 heartbeat IPC: 0.5311 cumulative IPC: 2.532 (Simulation time: 02 hr 41 min 13 sec)
Heartbeat CPU 0 instructions: 460000002 cycles: 190433463 heartbeat IPC: 0.5312 cumulative IPC: 2.319 (Simulation time: 02 hr 53 min 18 sec)
Heartbeat CPU 0 instructions: 470000003 cycles: 209267819 heartbeat IPC: 0.5309 cumulative IPC: 2.147 (Simulation time: 03 hr 04 min 01 sec)
Heartbeat CPU 0 instructions: 480000003 cycles: 228056695 heartbeat IPC: 0.5322 cumulative IPC: 2.005 (Simulation time: 03 hr 09 min 34 sec)
Heartbeat CPU 0 instructions: 490000004 cycles: 246841245 heartbeat IPC: 0.5324 cumulative IPC: 1.887 (Simulation time: 03 hr 12 min 39 sec)
Heartbeat CPU 0 instructions: 500000003 cycles: 265696454 heartbeat IPC: 0.5304 cumulative IPC: 1.785 (Simulation time: 03 hr 15 min 45 sec)
Heartbeat CPU 0 instructions: 510000002 cycles: 284485816 heartbeat IPC: 0.5322 cumulative IPC: 1.698 (Simulation time: 03 hr 19 min 17 sec)
Heartbeat CPU 0 instructions: 520000003 cycles: 303314224 heartbeat IPC: 0.5311 cumulative IPC: 1.622 (Simulation time: 03 hr 22 min 47 sec)
Heartbeat CPU 0 instructions: 530000003 cycles: 322091716 heartbeat IPC: 0.5326 cumulative IPC: 1.556 (Simulation time: 03 hr 26 min 10 sec)
Heartbeat CPU 0 instructions: 540000004 cycles: 340847295 heartbeat IPC: 0.5332 cumulative IPC: 1.497 (Simulation time: 03 hr 29 min 16 sec)
Heartbeat CPU 0 instructions: 550000000 cycles: 359664521 heartbeat IPC: 0.5314 cumulative IPC: 1.445 (Simulation time: 03 hr 32 min 18 sec)
Heartbeat CPU 0 instructions: 560000002 cycles: 378472481 heartbeat IPC: 0.5317 cumulative IPC: 1.398 (Simulation time: 03 hr 35 min 28 sec)
Heartbeat CPU 0 instructions: 570000002 cycles: 397305685 heartbeat IPC: 0.531 cumulative IPC: 1.355 (Simulation time: 03 hr 38 min 36 sec)
Heartbeat CPU 0 instructions: 580000000 cycles: 416125368 heartbeat IPC: 0.5314 cumulative IPC: 1.317 (Simulation time: 03 hr 41 min 46 sec)
Heartbeat CPU 0 instructions: 590000000 cycles: 434957870 heartbeat IPC: 0.531 cumulative IPC: 1.282 (Simulation time: 03 hr 45 min 49 sec)
*** Reached end of trace: (0, "traces/l1l2l3cache.champsimtrace")
Heartbeat CPU 0 instructions: 600000000 cycles: 453732970 heartbeat IPC: 0.5326 cumulative IPC: 1.25 (Simulation time: 03 hr 50 min 06 sec)
Heartbeat CPU 0 instructions: 610000004 cycles: 464068061 heartbeat IPC: 0.9676 cumulative IPC: 1.243 (Simulation time: 03 hr 52 min 22 sec)
Heartbeat CPU 0 instructions: 620000001 cycles: 479569090 heartbeat IPC: 0.6451 cumulative IPC: 1.223 (Simulation time: 03 hr 55 min 27 sec)
Heartbeat CPU 0 instructions: 630000001 cycles: 495058704 heartbeat IPC: 0.6456 cumulative IPC: 1.205 (Simulation time: 03 hr 58 min 32 sec)
Heartbeat CPU 0 instructions: 640000000 cycles: 502259866 heartbeat IPC: 1.389 cumulative IPC: 1.207 (Simulation time: 04 hr 00 min 13 sec)
Heartbeat CPU 0 instructions: 650000001 cycles: 504760174 heartbeat IPC: 4 cumulative IPC: 1.222 (Simulation time: 04 hr 01 min 13 sec)
Simulation finished CPU 0 instructions: 600000003 cycles: 491139574 cumulative IPC: 1.222 (Simulation time: 04 hr 01 min 13 sec)
Simulation complete CPU 0 instructions: 600000003 cycles: 491139574 cumulative IPC: 1.222 (Simulation time: 04 hr 01 min 13 sec)

ChampSim completed all CPUs

=== Simulation ===
CPU 0 runs traces/l1l2l3cache.champsimtrace
Region of Interest Statistics

CPU 0 cumulative IPC: 1.222 instructions: 600000003 cycles: 491139574
CPU 0 Branch Prediction Accuracy: 99.99% MPKI: 0.01094 Average ROB Occupancy at Mispredict: 170.6
Branch type MPKI
BRANCH_DIRECT_JUMP: 8.5e-05
BRANCH_INDIRECT: 0.000237
BRANCH_CONDITIONAL: 0.0105
BRANCH_DIRECT_CALL: 5e-06
BRANCH_INDIRECT_CALL: 4.67e-05
BRANCH_RETURN: 3.67e-05

LLC TOTAL        ACCESS:    3095830 HIT:     750778 MISS:    2345052
LLC LOAD         ACCESS:    1954446 HIT:     180154 MISS:    1774292
LLC RFO          ACCESS:     561709 HIT:        957 MISS:     560752
LLC PREFETCH     ACCESS:       6368 HIT:       1731 MISS:       4637
LLC WRITE        ACCESS:     562060 HIT:     562050 MISS:         10
LLC TRANSLATION  ACCESS:      11247 HIT:       5886 MISS:       5361
LLC PREFETCH REQUESTED:       6368 ISSUED:       6368 USEFUL:       2278 USELESS:        122
LLC AVERAGE MISS LATENCY: 700.3 cycles
cpu0_DTLB TOTAL        ACCESS:  124324537 HIT:  122309611 MISS:    2014926
cpu0_DTLB LOAD         ACCESS:  124324537 HIT:  122309611 MISS:    2014926
cpu0_DTLB RFO          ACCESS:          0 HIT:          0 MISS:          0
cpu0_DTLB PREFETCH     ACCESS:          0 HIT:          0 MISS:          0
cpu0_DTLB WRITE        ACCESS:          0 HIT:          0 MISS:          0
cpu0_DTLB TRANSLATION  ACCESS:          0 HIT:          0 MISS:          0
cpu0_DTLB PREFETCH REQUESTED:          0 ISSUED:          0 USEFUL:          0 USELESS:          0
cpu0_DTLB AVERAGE MISS LATENCY: 18.44 cycles
cpu0_ITLB TOTAL        ACCESS:       5101 HIT:       4860 MISS:        241
cpu0_ITLB LOAD         ACCESS:       5101 HIT:       4860 MISS:        241
cpu0_ITLB RFO          ACCESS:          0 HIT:          0 MISS:          0
cpu0_ITLB PREFETCH     ACCESS:          0 HIT:          0 MISS:          0
cpu0_ITLB WRITE        ACCESS:          0 HIT:          0 MISS:          0
cpu0_ITLB TRANSLATION  ACCESS:          0 HIT:          0 MISS:          0
cpu0_ITLB PREFETCH REQUESTED:          0 ISSUED:          0 USEFUL:          0 USELESS:          0
cpu0_ITLB AVERAGE MISS LATENCY: 243.3 cycles
cpu0_L1D TOTAL        ACCESS:  172096232 HIT:  160489478 MISS:   11606754
cpu0_L1D LOAD         ACCESS:   63772605 HIT:   61724851 MISS:    2047754
cpu0_L1D RFO          ACCESS:          0 HIT:          0 MISS:          0
cpu0_L1D PREFETCH     ACCESS:          0 HIT:          0 MISS:          0
cpu0_L1D WRITE        ACCESS:  107018127 HIT:   98205374 MISS:    8812753
cpu0_L1D TRANSLATION  ACCESS:    1305500 HIT:     559253 MISS:     746247
cpu0_L1D PREFETCH REQUESTED:          0 ISSUED:          0 USEFUL:          0 USELESS:          0
cpu0_L1D AVERAGE MISS LATENCY: 141 cycles
cpu0_L1I TOTAL        ACCESS:       5880 HIT:       3303 MISS:       2577
cpu0_L1I LOAD         ACCESS:       5880 HIT:       3303 MISS:       2577
cpu0_L1I RFO          ACCESS:          0 HIT:          0 MISS:          0
cpu0_L1I PREFETCH     ACCESS:          0 HIT:          0 MISS:          0
cpu0_L1I WRITE        ACCESS:          0 HIT:          0 MISS:          0
cpu0_L1I TRANSLATION  ACCESS:          0 HIT:          0 MISS:          0
cpu0_L1I PREFETCH REQUESTED:          0 ISSUED:          0 USEFUL:          0 USELESS:          0
cpu0_L1I AVERAGE MISS LATENCY: 280.3 cycles
cpu0_L2C TOTAL        ACCESS:    3905770 HIT:    1378352 MISS:    2527418
cpu0_L2C LOAD         ACCESS:    2009352 HIT:      54906 MISS:    1954446
cpu0_L2C RFO          ACCESS:     574419 HIT:      12710 MISS:     561709
cpu0_L2C PREFETCH     ACCESS:          0 HIT:          0 MISS:          0
cpu0_L2C WRITE        ACCESS:     575767 HIT:     575751 MISS:         16
cpu0_L2C TRANSLATION  ACCESS:     746232 HIT:     734985 MISS:      11247
cpu0_L2C PREFETCH REQUESTED:          0 ISSUED:          0 USEFUL:          0 USELESS:          0
cpu0_L2C AVERAGE MISS LATENCY: 670.4 cycles
cpu0_STLB TOTAL        ACCESS:    1982615 HIT:     677123 MISS:    1305492
cpu0_STLB LOAD         ACCESS:    1982615 HIT:     677123 MISS:    1305492
cpu0_STLB RFO          ACCESS:          0 HIT:          0 MISS:          0
cpu0_STLB PREFETCH     ACCESS:          0 HIT:          0 MISS:          0
cpu0_STLB WRITE        ACCESS:          0 HIT:          0 MISS:          0
cpu0_STLB TRANSLATION  ACCESS:          0 HIT:          0 MISS:          0
cpu0_STLB PREFETCH REQUESTED:          0 ISSUED:          0 USEFUL:          0 USELESS:          0
cpu0_STLB AVERAGE MISS LATENCY: 15.43 cycles

DRAM Statistics

Channel 0 RQ ROW_BUFFER_HIT:     108877
  ROW_BUFFER_MISS:    2232670
 AVG DBUS CONGESTED CYCLE: 3.944
WQ ROW_BUFFER_HIT: Channel 0 
  ROW_BUFFER_MISS:     171024
  FULL:     390929
