WARNING: physical memory size is smaller than virtual memory size.

*** ChampSim Multicore Out-of-Order Simulator ***
Warmup Instructions: 50000000
Simulation Instructions: 600000000
Number of CPUs: 1
Page size: 4096

Off-chip DRAM Size: 4 GiB Channels: 1 Width: 64-bit Data Race: 3200 MT/s
Heartbeat CPU 0 instructions: 10000004 cycles: 2777663 heartbeat IPC: 3.6 cumulative IPC: 3.6 (Simulation time: 00 hr 00 min 40 sec)
Heartbeat CPU 0 instructions: 20000001 cycles: 5634805 heartbeat IPC: 3.5 cumulative IPC: 3.549 (Simulation time: 00 hr 01 min 25 sec)
Heartbeat CPU 0 instructions: 30000000 cycles: 8491948 heartbeat IPC: 3.5 cumulative IPC: 3.533 (Simulation time: 00 hr 02 min 11 sec)
Heartbeat CPU 0 instructions: 40000003 cycles: 11120601 heartbeat IPC: 3.804 cumulative IPC: 3.597 (Simulation time: 00 hr 02 min 57 sec)
Heartbeat CPU 0 instructions: 50000003 cycles: 13620601 heartbeat IPC: 4 cumulative IPC: 3.671 (Simulation time: 00 hr 03 min 48 sec)
Warmup finished CPU 0 instructions: 50000003 cycles: 13620602 cumulative IPC: 3.671 (Simulation time: 00 hr 03 min 48 sec)
Warmup complete CPU 0 instructions: 50000003 cycles: 13620602 cumulative IPC: 3.671 (Simulation time: 00 hr 03 min 48 sec)
Heartbeat CPU 0 instructions: 60000002 cycles: 16347845 heartbeat IPC: 3.667 cumulative IPC: 3.667 (Simulation time: 00 hr 04 min 53 sec)
Heartbeat CPU 0 instructions: 70000001 cycles: 19075145 heartbeat IPC: 3.667 cumulative IPC: 3.667 (Simulation time: 00 hr 05 min 57 sec)
Heartbeat CPU 0 instructions: 80000001 cycles: 21802387 heartbeat IPC: 3.667 cumulative IPC: 3.667 (Simulation time: 00 hr 07 min 02 sec)
Heartbeat CPU 0 instructions: 90000000 cycles: 24530053 heartbeat IPC: 3.666 cumulative IPC: 3.667 (Simulation time: 00 hr 08 min 04 sec)
Heartbeat CPU 0 instructions: 100000003 cycles: 27257296 heartbeat IPC: 3.667 cumulative IPC: 3.667 (Simulation time: 00 hr 09 min 04 sec)
Heartbeat CPU 0 instructions: 110000004 cycles: 29984599 heartbeat IPC: 3.667 cumulative IPC: 3.667 (Simulation time: 00 hr 10 min 03 sec)
Heartbeat CPU 0 instructions: 120000003 cycles: 32711869 heartbeat IPC: 3.667 cumulative IPC: 3.667 (Simulation time: 00 hr 10 min 59 sec)
Heartbeat CPU 0 instructions: 130000003 cycles: 35439142 heartbeat IPC: 3.667 cumulative IPC: 3.667 (Simulation time: 00 hr 11 min 56 sec)
Heartbeat CPU 0 instructions: 140000002 cycles: 38166817 heartbeat IPC: 3.666 cumulative IPC: 3.667 (Simulation time: 00 hr 12 min 53 sec)
Heartbeat CPU 0 instructions: 150000000 cycles: 40894060 heartbeat IPC: 3.667 cumulative IPC: 3.667 (Simulation time: 00 hr 13 min 49 sec)
Heartbeat CPU 0 instructions: 160000001 cycles: 43621364 heartbeat IPC: 3.667 cumulative IPC: 3.667 (Simulation time: 00 hr 14 min 46 sec)
Heartbeat CPU 0 instructions: 170000004 cycles: 46348605 heartbeat IPC: 3.667 cumulative IPC: 3.667 (Simulation time: 00 hr 15 min 42 sec)
Heartbeat CPU 0 instructions: 180000000 cycles: 49076288 heartbeat IPC: 3.666 cumulative IPC: 3.667 (Simulation time: 00 hr 16 min 41 sec)
Heartbeat CPU 0 instructions: 190000004 cycles: 51803574 heartbeat IPC: 3.667 cumulative IPC: 3.667 (Simulation time: 00 hr 17 min 40 sec)
Heartbeat CPU 0 instructions: 200000002 cycles: 54530832 heartbeat IPC: 3.667 cumulative IPC: 3.667 (Simulation time: 00 hr 18 min 40 sec)
Heartbeat CPU 0 instructions: 210000003 cycles: 57258135 heartbeat IPC: 3.667 cumulative IPC: 3.667 (Simulation time: 00 hr 19 min 38 sec)
Heartbeat CPU 0 instructions: 220000001 cycles: 59985377 heartbeat IPC: 3.667 cumulative IPC: 3.667 (Simulation time: 00 hr 20 min 42 sec)
Heartbeat CPU 0 instructions: 230000002 cycles: 62713361 heartbeat IPC: 3.666 cumulative IPC: 3.667 (Simulation time: 00 hr 21 min 42 sec)
Heartbeat CPU 0 instructions: 240000003 cycles: 65440603 heartbeat IPC: 3.667 cumulative IPC: 3.667 (Simulation time: 00 hr 22 min 46 sec)
Heartbeat CPU 0 instructions: 250000004 cycles: 68167906 heartbeat IPC: 3.667 cumulative IPC: 3.667 (Simulation time: 00 hr 23 min 47 sec)
Heartbeat CPU 0 instructions: 260000000 cycles: 70895189 heartbeat IPC: 3.667 cumulative IPC: 3.667 (Simulation time: 00 hr 24 min 51 sec)
Heartbeat CPU 0 instructions: 270000003 cycles: 73623741 heartbeat IPC: 3.665 cumulative IPC: 3.666 (Simulation time: 00 hr 25 min 53 sec)
Heartbeat CPU 0 instructions: 280000001 cycles: 76351042 heartbeat IPC: 3.667 cumulative IPC: 3.666 (Simulation time: 00 hr 26 min 55 sec)
Heartbeat CPU 0 instructions: 290000000 cycles: 79078283 heartbeat IPC: 3.667 cumulative IPC: 3.666 (Simulation time: 00 hr 27 min 58 sec)
Heartbeat CPU 0 instructions: 300000001 cycles: 81805586 heartbeat IPC: 3.667 cumulative IPC: 3.666 (Simulation time: 00 hr 29 min 00 sec)
Heartbeat CPU 0 instructions: 310000000 cycles: 84532828 heartbeat IPC: 3.667 cumulative IPC: 3.667 (Simulation time: 00 hr 30 min 00 sec)
Heartbeat CPU 0 instructions: 320000000 cycles: 87261226 heartbeat IPC: 3.665 cumulative IPC: 3.666 (Simulation time: 00 hr 30 min 59 sec)
Heartbeat CPU 0 instructions: 330000001 cycles: 89988522 heartbeat IPC: 3.667 cumulative IPC: 3.666 (Simulation time: 00 hr 31 min 56 sec)
Heartbeat CPU 0 instructions: 340000002 cycles: 92715769 heartbeat IPC: 3.667 cumulative IPC: 3.666 (Simulation time: 00 hr 32 min 54 sec)
Heartbeat CPU 0 instructions: 350000003 cycles: 95443072 heartbeat IPC: 3.667 cumulative IPC: 3.666 (Simulation time: 00 hr 33 min 51 sec)
Heartbeat CPU 0 instructions: 360000001 cycles: 98171109 heartbeat IPC: 3.666 cumulative IPC: 3.666 (Simulation time: 00 hr 34 min 52 sec)
Heartbeat CPU 0 instructions: 370000002 cycles: 100898413 heartbeat IPC: 3.667 cumulative IPC: 3.666 (Simulation time: 00 hr 35 min 54 sec)
Heartbeat CPU 0 instructions: 380000001 cycles: 103625667 heartbeat IPC: 3.667 cumulative IPC: 3.666 (Simulation time: 00 hr 36 min 55 sec)
Heartbeat CPU 0 instructions: 390000004 cycles: 106352956 heartbeat IPC: 3.667 cumulative IPC: 3.666 (Simulation time: 00 hr 37 min 55 sec)
Heartbeat CPU 0 instructions: 400000000 cycles: 109080256 heartbeat IPC: 3.667 cumulative IPC: 3.666 (Simulation time: 00 hr 38 min 55 sec)
Heartbeat CPU 0 instructions: 410000003 cycles: 111808004 heartbeat IPC: 3.666 cumulative IPC: 3.666 (Simulation time: 00 hr 39 min 59 sec)
Heartbeat CPU 0 instructions: 420000003 cycles: 119407870 heartbeat IPC: 1.316 cumulative IPC: 3.498 (Simulation time: 00 hr 41 min 56 sec)
Heartbeat CPU 0 instructions: 430000002 cycles: 138467523 heartbeat IPC: 0.5247 cumulative IPC: 3.044 (Simulation time: 00 hr 46 min 08 sec)
Heartbeat CPU 0 instructions: 440000004 cycles: 157516309 heartbeat IPC: 0.525 cumulative IPC: 2.71 (Simulation time: 00 hr 50 min 18 sec)
Heartbeat CPU 0 instructions: 450000000 cycles: 176578798 heartbeat IPC: 0.5246 cumulative IPC: 2.455 (Simulation time: 00 hr 54 min 20 sec)
Heartbeat CPU 0 instructions: 460000002 cycles: 195550048 heartbeat IPC: 0.5271 cumulative IPC: 2.254 (Simulation time: 00 hr 58 min 28 sec)
Heartbeat CPU 0 instructions: 470000003 cycles: 214592260 heartbeat IPC: 0.5251 cumulative IPC: 2.09 (Simulation time: 01 hr 03 min 23 sec)
Heartbeat CPU 0 instructions: 480000003 cycles: 233599975 heartbeat IPC: 0.5261 cumulative IPC: 1.955 (Simulation time: 01 hr 10 min 52 sec)
Heartbeat CPU 0 instructions: 490000004 cycles: 252608940 heartbeat IPC: 0.5261 cumulative IPC: 1.841 (Simulation time: 01 hr 18 min 22 sec)
Heartbeat CPU 0 instructions: 500000003 cycles: 271644132 heartbeat IPC: 0.5253 cumulative IPC: 1.744 (Simulation time: 01 hr 26 min 34 sec)
Heartbeat CPU 0 instructions: 510000002 cycles: 290654171 heartbeat IPC: 0.526 cumulative IPC: 1.66 (Simulation time: 01 hr 31 min 44 sec)
Heartbeat CPU 0 instructions: 520000003 cycles: 309688264 heartbeat IPC: 0.5254 cumulative IPC: 1.587 (Simulation time: 01 hr 41 min 03 sec)
Heartbeat CPU 0 instructions: 530000004 cycles: 328656078 heartbeat IPC: 0.5272 cumulative IPC: 1.524 (Simulation time: 01 hr 49 min 07 sec)
Heartbeat CPU 0 instructions: 540000004 cycles: 347630245 heartbeat IPC: 0.527 cumulative IPC: 1.467 (Simulation time: 01 hr 57 min 18 sec)
Heartbeat CPU 0 instructions: 550000000 cycles: 366682241 heartbeat IPC: 0.5249 cumulative IPC: 1.416 (Simulation time: 02 hr 05 min 03 sec)
Heartbeat CPU 0 instructions: 560000002 cycles: 385704515 heartbeat IPC: 0.5257 cumulative IPC: 1.371 (Simulation time: 02 hr 13 min 09 sec)
Heartbeat CPU 0 instructions: 570000002 cycles: 404736117 heartbeat IPC: 0.5254 cumulative IPC: 1.33 (Simulation time: 02 hr 21 min 12 sec)
Heartbeat CPU 0 instructions: 580000004 cycles: 423779027 heartbeat IPC: 0.5251 cumulative IPC: 1.292 (Simulation time: 02 hr 25 min 52 sec)
Heartbeat CPU 0 instructions: 590000000 cycles: 442817528 heartbeat IPC: 0.5253 cumulative IPC: 1.258 (Simulation time: 02 hr 30 min 13 sec)
*** Reached end of trace: (0, "traces/l1l2l3cache.champsimtrace")
Heartbeat CPU 0 instructions: 600000000 cycles: 461845811 heartbeat IPC: 0.5255 cumulative IPC: 1.227 (Simulation time: 02 hr 34 min 20 sec)
Heartbeat CPU 0 instructions: 610000004 cycles: 470761029 heartbeat IPC: 1.122 cumulative IPC: 1.225 (Simulation time: 02 hr 36 min 27 sec)
Heartbeat CPU 0 instructions: 620000001 cycles: 486207748 heartbeat IPC: 0.6474 cumulative IPC: 1.206 (Simulation time: 02 hr 40 min 01 sec)
Heartbeat CPU 0 instructions: 630000001 cycles: 501691043 heartbeat IPC: 0.6459 cumulative IPC: 1.188 (Simulation time: 02 hr 43 min 46 sec)
Heartbeat CPU 0 instructions: 640000000 cycles: 508997631 heartbeat IPC: 1.369 cumulative IPC: 1.191 (Simulation time: 02 hr 45 min 42 sec)
Heartbeat CPU 0 instructions: 650000003 cycles: 511724903 heartbeat IPC: 3.667 cumulative IPC: 1.205 (Simulation time: 02 hr 46 min 43 sec)
Simulation finished CPU 0 instructions: 600000000 cycles: 498104302 cumulative IPC: 1.205 (Simulation time: 02 hr 46 min 43 sec)
Simulation complete CPU 0 instructions: 600000000 cycles: 498104302 cumulative IPC: 1.205 (Simulation time: 02 hr 46 min 43 sec)

ChampSim completed all CPUs

=== Simulation ===
CPU 0 runs traces/l1l2l3cache.champsimtrace
Region of Interest Statistics

CPU 0 cumulative IPC: 1.205 instructions: 600000000 cycles: 498104302
CPU 0 Branch Prediction Accuracy: 99.34% MPKI: 1.413 Average ROB Occupancy at Mispredict: 143.3
Branch type MPKI
BRANCH_DIRECT_JUMP: 8.5e-05
BRANCH_INDIRECT: 0.000237
BRANCH_CONDITIONAL: 1.41
BRANCH_DIRECT_CALL: 5e-06
BRANCH_INDIRECT_CALL: 4.67e-05
BRANCH_RETURN: 3.67e-05

LLC TOTAL        ACCESS:    3095783 HIT:     249754 MISS:    2846029
LLC LOAD         ACCESS:    1954444 HIT:     155676 MISS:    1798768
LLC RFO          ACCESS:     561712 HIT:      43224 MISS:     518488
LLC PREFETCH     ACCESS:       6317 HIT:       6297 MISS:         20
LLC WRITE        ACCESS:     562063 HIT:      44039 MISS:     518024
LLC TRANSLATION  ACCESS:      11247 HIT:        518 MISS:      10729
LLC PREFETCH REQUESTED:       6317 ISSUED:       6317 USEFUL:          4 USELESS:         12
LLC AVERAGE MISS LATENCY: 572 cycles
cpu0_DTLB TOTAL        ACCESS:  131749560 HIT:  129734620 MISS:    2014940
cpu0_DTLB LOAD         ACCESS:  131749560 HIT:  129734620 MISS:    2014940
cpu0_DTLB RFO          ACCESS:          0 HIT:          0 MISS:          0
cpu0_DTLB PREFETCH     ACCESS:          0 HIT:          0 MISS:          0
cpu0_DTLB WRITE        ACCESS:          0 HIT:          0 MISS:          0
cpu0_DTLB TRANSLATION  ACCESS:          0 HIT:          0 MISS:          0
cpu0_DTLB PREFETCH REQUESTED:          0 ISSUED:          0 USEFUL:          0 USELESS:          0
cpu0_DTLB AVERAGE MISS LATENCY: 20.22 cycles
cpu0_ITLB TOTAL        ACCESS:       4974 HIT:       4751 MISS:        223
cpu0_ITLB LOAD         ACCESS:       4974 HIT:       4751 MISS:        223
cpu0_ITLB RFO          ACCESS:          0 HIT:          0 MISS:          0
cpu0_ITLB PREFETCH     ACCESS:          0 HIT:          0 MISS:          0
cpu0_ITLB WRITE        ACCESS:          0 HIT:          0 MISS:          0
cpu0_ITLB TRANSLATION  ACCESS:          0 HIT:          0 MISS:          0
cpu0_ITLB PREFETCH REQUESTED:          0 ISSUED:          0 USEFUL:          0 USELESS:          0
cpu0_ITLB AVERAGE MISS LATENCY: 84.47 cycles
cpu0_L1D TOTAL        ACCESS:  179298742 HIT:  168032576 MISS:   11266166
cpu0_L1D LOAD         ACCESS:   70976836 HIT:   68937369 MISS:    2039467
cpu0_L1D RFO          ACCESS:          0 HIT:          0 MISS:          0
cpu0_L1D PREFETCH     ACCESS:          0 HIT:          0 MISS:          0
cpu0_L1D WRITE        ACCESS:  107016415 HIT:   98535934 MISS:    8480481
cpu0_L1D TRANSLATION  ACCESS:    1305491 HIT:     559273 MISS:     746218
cpu0_L1D PREFETCH REQUESTED:          0 ISSUED:          0 USEFUL:          0 USELESS:          0
cpu0_L1D AVERAGE MISS LATENCY: 144.1 cycles
cpu0_L1I TOTAL        ACCESS:       5676 HIT:       3424 MISS:       2252
cpu0_L1I LOAD         ACCESS:       5676 HIT:       3424 MISS:       2252
cpu0_L1I RFO          ACCESS:          0 HIT:          0 MISS:          0
cpu0_L1I PREFETCH     ACCESS:          0 HIT:          0 MISS:          0
cpu0_L1I WRITE        ACCESS:          0 HIT:          0 MISS:          0
cpu0_L1I TRANSLATION  ACCESS:          0 HIT:          0 MISS:          0
cpu0_L1I PREFETCH REQUESTED:          0 ISSUED:          0 USEFUL:          0 USELESS:          0
cpu0_L1I AVERAGE MISS LATENCY: 138.7 cycles
cpu0_L2C TOTAL        ACCESS:    3903770 HIT:    1376350 MISS:    2527420
cpu0_L2C LOAD         ACCESS:    2009350 HIT:      54906 MISS:    1954444
cpu0_L2C RFO          ACCESS:     573544 HIT:      11832 MISS:     561712
cpu0_L2C PREFETCH     ACCESS:          0 HIT:          0 MISS:          0
cpu0_L2C WRITE        ACCESS:     574680 HIT:     574663 MISS:         17
cpu0_L2C TRANSLATION  ACCESS:     746196 HIT:     734949 MISS:      11247
cpu0_L2C PREFETCH REQUESTED:          0 ISSUED:          0 USEFUL:          0 USELESS:          0
cpu0_L2C AVERAGE MISS LATENCY: 665 cycles
cpu0_STLB TOTAL        ACCESS:    1982661 HIT:     677178 MISS:    1305483
cpu0_STLB LOAD         ACCESS:    1982661 HIT:     677178 MISS:    1305483
cpu0_STLB RFO          ACCESS:          0 HIT:          0 MISS:          0
cpu0_STLB PREFETCH     ACCESS:          0 HIT:          0 MISS:          0
cpu0_STLB WRITE        ACCESS:          0 HIT:          0 MISS:          0
cpu0_STLB TRANSLATION  ACCESS:          0 HIT:          0 MISS:          0
cpu0_STLB PREFETCH REQUESTED:          0 ISSUED:          0 USEFUL:          0 USELESS:          0
cpu0_STLB AVERAGE MISS LATENCY: 18.13 cycles

DRAM Statistics

Channel 0 RQ ROW_BUFFER_HIT:      87437
  ROW_BUFFER_MISS:    2240336
 AVG DBUS CONGESTED CYCLE: 3.945
WQ ROW_BUFFER_HIT: Channel 0 
  ROW_BUFFER_MISS:     176161
  FULL:     342346
