WARNING: physical memory size is smaller than virtual memory size.

*** ChampSim Multicore Out-of-Order Simulator ***
Warmup Instructions: 50000000
Simulation Instructions: 600000000
Number of CPUs: 1
Page size: 4096

Off-chip DRAM Size: 4 GiB Channels: 1 Width: 64-bit Data Race: 3200 MT/s
Heartbeat CPU 0 instructions: 10000004 cycles: 2777663 heartbeat IPC: 3.6 cumulative IPC: 3.6 (Simulation time: 00 hr 00 min 48 sec)
Heartbeat CPU 0 instructions: 20000001 cycles: 5634805 heartbeat IPC: 3.5 cumulative IPC: 3.549 (Simulation time: 00 hr 01 min 40 sec)
Heartbeat CPU 0 instructions: 30000000 cycles: 8491948 heartbeat IPC: 3.5 cumulative IPC: 3.533 (Simulation time: 00 hr 02 min 36 sec)
Heartbeat CPU 0 instructions: 40000003 cycles: 11120601 heartbeat IPC: 3.804 cumulative IPC: 3.597 (Simulation time: 00 hr 03 min 36 sec)
Heartbeat CPU 0 instructions: 50000003 cycles: 13620601 heartbeat IPC: 4 cumulative IPC: 3.671 (Simulation time: 00 hr 04 min 31 sec)
Warmup finished CPU 0 instructions: 50000003 cycles: 13620602 cumulative IPC: 3.671 (Simulation time: 00 hr 04 min 31 sec)
Warmup complete CPU 0 instructions: 50000003 cycles: 13620602 cumulative IPC: 3.671 (Simulation time: 00 hr 04 min 31 sec)
Heartbeat CPU 0 instructions: 60000002 cycles: 16295256 heartbeat IPC: 3.739 cumulative IPC: 3.739 (Simulation time: 00 hr 05 min 35 sec)
Heartbeat CPU 0 instructions: 70000001 cycles: 18969955 heartbeat IPC: 3.739 cumulative IPC: 3.739 (Simulation time: 00 hr 06 min 34 sec)
Heartbeat CPU 0 instructions: 80000000 cycles: 21644609 heartbeat IPC: 3.739 cumulative IPC: 3.739 (Simulation time: 00 hr 07 min 34 sec)
Heartbeat CPU 0 instructions: 90000003 cycles: 24319803 heartbeat IPC: 3.738 cumulative IPC: 3.739 (Simulation time: 00 hr 08 min 33 sec)
Heartbeat CPU 0 instructions: 100000003 cycles: 26994458 heartbeat IPC: 3.739 cumulative IPC: 3.739 (Simulation time: 00 hr 09 min 28 sec)
Heartbeat CPU 0 instructions: 110000004 cycles: 29669159 heartbeat IPC: 3.739 cumulative IPC: 3.739 (Simulation time: 00 hr 10 min 26 sec)
Heartbeat CPU 0 instructions: 120000003 cycles: 32343842 heartbeat IPC: 3.739 cumulative IPC: 3.739 (Simulation time: 00 hr 11 min 24 sec)
Heartbeat CPU 0 instructions: 130000002 cycles: 35018512 heartbeat IPC: 3.739 cumulative IPC: 3.739 (Simulation time: 00 hr 12 min 22 sec)
Heartbeat CPU 0 instructions: 140000002 cycles: 37693764 heartbeat IPC: 3.738 cumulative IPC: 3.739 (Simulation time: 00 hr 13 min 18 sec)
Heartbeat CPU 0 instructions: 150000000 cycles: 40368419 heartbeat IPC: 3.739 cumulative IPC: 3.739 (Simulation time: 00 hr 14 min 13 sec)
Heartbeat CPU 0 instructions: 160000001 cycles: 43043120 heartbeat IPC: 3.739 cumulative IPC: 3.739 (Simulation time: 00 hr 15 min 09 sec)
Heartbeat CPU 0 instructions: 170000004 cycles: 45717774 heartbeat IPC: 3.739 cumulative IPC: 3.739 (Simulation time: 00 hr 16 min 06 sec)
Heartbeat CPU 0 instructions: 180000000 cycles: 48393726 heartbeat IPC: 3.737 cumulative IPC: 3.739 (Simulation time: 00 hr 17 min 04 sec)
Heartbeat CPU 0 instructions: 190000004 cycles: 51068425 heartbeat IPC: 3.739 cumulative IPC: 3.739 (Simulation time: 00 hr 18 min 01 sec)
Heartbeat CPU 0 instructions: 200000002 cycles: 53743082 heartbeat IPC: 3.739 cumulative IPC: 3.739 (Simulation time: 00 hr 18 min 59 sec)
Heartbeat CPU 0 instructions: 210000003 cycles: 56417783 heartbeat IPC: 3.739 cumulative IPC: 3.739 (Simulation time: 00 hr 20 min 00 sec)
Heartbeat CPU 0 instructions: 220000001 cycles: 59092436 heartbeat IPC: 3.739 cumulative IPC: 3.739 (Simulation time: 00 hr 21 min 06 sec)
Heartbeat CPU 0 instructions: 230000002 cycles: 61768381 heartbeat IPC: 3.737 cumulative IPC: 3.738 (Simulation time: 00 hr 22 min 07 sec)
Heartbeat CPU 0 instructions: 240000003 cycles: 64443035 heartbeat IPC: 3.739 cumulative IPC: 3.739 (Simulation time: 00 hr 23 min 07 sec)
Heartbeat CPU 0 instructions: 250000004 cycles: 67117737 heartbeat IPC: 3.739 cumulative IPC: 3.739 (Simulation time: 00 hr 24 min 06 sec)
Heartbeat CPU 0 instructions: 260000000 cycles: 69792433 heartbeat IPC: 3.739 cumulative IPC: 3.739 (Simulation time: 00 hr 25 min 04 sec)
Heartbeat CPU 0 instructions: 270000003 cycles: 72467559 heartbeat IPC: 3.738 cumulative IPC: 3.739 (Simulation time: 00 hr 26 min 05 sec)
Heartbeat CPU 0 instructions: 280000001 cycles: 75142258 heartbeat IPC: 3.739 cumulative IPC: 3.739 (Simulation time: 00 hr 27 min 01 sec)
Heartbeat CPU 0 instructions: 290000000 cycles: 77816912 heartbeat IPC: 3.739 cumulative IPC: 3.739 (Simulation time: 00 hr 27 min 59 sec)
Heartbeat CPU 0 instructions: 300000001 cycles: 80491614 heartbeat IPC: 3.739 cumulative IPC: 3.739 (Simulation time: 00 hr 28 min 56 sec)
Heartbeat CPU 0 instructions: 310000000 cycles: 83166268 heartbeat IPC: 3.739 cumulative IPC: 3.739 (Simulation time: 00 hr 29 min 55 sec)
Heartbeat CPU 0 instructions: 320000000 cycles: 85841342 heartbeat IPC: 3.738 cumulative IPC: 3.739 (Simulation time: 00 hr 30 min 52 sec)
Heartbeat CPU 0 instructions: 330000002 cycles: 88516040 heartbeat IPC: 3.739 cumulative IPC: 3.739 (Simulation time: 00 hr 31 min 49 sec)
Heartbeat CPU 0 instructions: 340000002 cycles: 91190696 heartbeat IPC: 3.739 cumulative IPC: 3.739 (Simulation time: 00 hr 32 min 46 sec)
Heartbeat CPU 0 instructions: 350000003 cycles: 93865398 heartbeat IPC: 3.739 cumulative IPC: 3.739 (Simulation time: 00 hr 33 min 48 sec)
Heartbeat CPU 0 instructions: 360000001 cycles: 96541358 heartbeat IPC: 3.737 cumulative IPC: 3.739 (Simulation time: 00 hr 34 min 47 sec)
Heartbeat CPU 0 instructions: 370000002 cycles: 99216059 heartbeat IPC: 3.739 cumulative IPC: 3.739 (Simulation time: 00 hr 35 min 47 sec)
Heartbeat CPU 0 instructions: 380000001 cycles: 101890726 heartbeat IPC: 3.739 cumulative IPC: 3.739 (Simulation time: 00 hr 36 min 44 sec)
Heartbeat CPU 0 instructions: 390000004 cycles: 104565413 heartbeat IPC: 3.739 cumulative IPC: 3.739 (Simulation time: 00 hr 37 min 42 sec)
Heartbeat CPU 0 instructions: 400000000 cycles: 107240111 heartbeat IPC: 3.739 cumulative IPC: 3.739 (Simulation time: 00 hr 38 min 47 sec)
Heartbeat CPU 0 instructions: 410000003 cycles: 109915522 heartbeat IPC: 3.738 cumulative IPC: 3.739 (Simulation time: 00 hr 39 min 46 sec)
Heartbeat CPU 0 instructions: 420000003 cycles: 118649794 heartbeat IPC: 1.145 cumulative IPC: 3.523 (Simulation time: 00 hr 41 min 55 sec)
Heartbeat CPU 0 instructions: 430000002 cycles: 146513519 heartbeat IPC: 0.3589 cumulative IPC: 2.859 (Simulation time: 00 hr 47 min 39 sec)
Heartbeat CPU 0 instructions: 440000004 cycles: 174420906 heartbeat IPC: 0.3583 cumulative IPC: 2.425 (Simulation time: 00 hr 53 min 23 sec)
Heartbeat CPU 0 instructions: 450000000 cycles: 202407227 heartbeat IPC: 0.3573 cumulative IPC: 2.119 (Simulation time: 00 hr 59 min 15 sec)
Heartbeat CPU 0 instructions: 460000002 cycles: 230257111 heartbeat IPC: 0.3591 cumulative IPC: 1.893 (Simulation time: 01 hr 08 min 48 sec)
Heartbeat CPU 0 instructions: 470000003 cycles: 258201804 heartbeat IPC: 0.3578 cumulative IPC: 1.717 (Simulation time: 01 hr 19 min 14 sec)
Heartbeat CPU 0 instructions: 480000004 cycles: 286001692 heartbeat IPC: 0.3597 cumulative IPC: 1.579 (Simulation time: 01 hr 28 min 15 sec)
Heartbeat CPU 0 instructions: 490000000 cycles: 313935241 heartbeat IPC: 0.358 cumulative IPC: 1.465 (Simulation time: 01 hr 39 min 59 sec)
Heartbeat CPU 0 instructions: 500000001 cycles: 341878358 heartbeat IPC: 0.3579 cumulative IPC: 1.371 (Simulation time: 01 hr 51 min 30 sec)
Heartbeat CPU 0 instructions: 510000002 cycles: 369750051 heartbeat IPC: 0.3588 cumulative IPC: 1.292 (Simulation time: 02 hr 02 min 51 sec)
Heartbeat CPU 0 instructions: 520000003 cycles: 397711570 heartbeat IPC: 0.3576 cumulative IPC: 1.224 (Simulation time: 02 hr 13 min 13 sec)
Heartbeat CPU 0 instructions: 530000004 cycles: 425435027 heartbeat IPC: 0.3607 cumulative IPC: 1.166 (Simulation time: 02 hr 22 min 17 sec)
Heartbeat CPU 0 instructions: 540000004 cycles: 453292383 heartbeat IPC: 0.359 cumulative IPC: 1.114 (Simulation time: 02 hr 28 min 17 sec)
Heartbeat CPU 0 instructions: 550000000 cycles: 481171325 heartbeat IPC: 0.3587 cumulative IPC: 1.069 (Simulation time: 02 hr 34 min 03 sec)
Heartbeat CPU 0 instructions: 560000002 cycles: 508994166 heartbeat IPC: 0.3594 cumulative IPC: 1.03 (Simulation time: 02 hr 40 min 12 sec)
Heartbeat CPU 0 instructions: 570000002 cycles: 536916647 heartbeat IPC: 0.3581 cumulative IPC: 0.9937 (Simulation time: 02 hr 46 min 32 sec)
Heartbeat CPU 0 instructions: 580000004 cycles: 564828523 heartbeat IPC: 0.3583 cumulative IPC: 0.9615 (Simulation time: 02 hr 52 min 41 sec)
Heartbeat CPU 0 instructions: 590000000 cycles: 592705450 heartbeat IPC: 0.3587 cumulative IPC: 0.9325 (Simulation time: 02 hr 59 min 37 sec)
*** Reached end of trace: (0, "traces/l1l2l3cache.champsimtrace")
Heartbeat CPU 0 instructions: 600000000 cycles: 620566906 heartbeat IPC: 0.3589 cumulative IPC: 0.9062 (Simulation time: 03 hr 05 min 52 sec)
Heartbeat CPU 0 instructions: 610000002 cycles: 629453696 heartbeat IPC: 1.125 cumulative IPC: 0.9093 (Simulation time: 03 hr 08 min 01 sec)
Heartbeat CPU 0 instructions: 620000001 cycles: 644894704 heartbeat IPC: 0.6476 cumulative IPC: 0.9029 (Simulation time: 03 hr 11 min 38 sec)
Heartbeat CPU 0 instructions: 630000000 cycles: 660329644 heartbeat IPC: 0.6479 cumulative IPC: 0.8968 (Simulation time: 03 hr 15 min 11 sec)
Heartbeat CPU 0 instructions: 640000000 cycles: 667606654 heartbeat IPC: 1.374 cumulative IPC: 0.9022 (Simulation time: 03 hr 17 min 06 sec)
Heartbeat CPU 0 instructions: 650000003 cycles: 670281339 heartbeat IPC: 3.739 cumulative IPC: 0.9137 (Simulation time: 03 hr 18 min 05 sec)
Simulation finished CPU 0 instructions: 600000000 cycles: 656660738 cumulative IPC: 0.9137 (Simulation time: 03 hr 18 min 05 sec)
Simulation complete CPU 0 instructions: 600000000 cycles: 656660738 cumulative IPC: 0.9137 (Simulation time: 03 hr 18 min 05 sec)

ChampSim completed all CPUs

=== Simulation ===
CPU 0 runs traces/l1l2l3cache.champsimtrace
Region of Interest Statistics

CPU 0 cumulative IPC: 0.9137 instructions: 600000000 cycles: 656660738
CPU 0 Branch Prediction Accuracy: 99.5% MPKI: 1.069 Average ROB Occupancy at Mispredict: 150
Branch type MPKI
BRANCH_DIRECT_JUMP: 8.5e-05
BRANCH_INDIRECT: 0.000237
BRANCH_CONDITIONAL: 1.07
BRANCH_DIRECT_CALL: 5e-06
BRANCH_INDIRECT_CALL: 4.67e-05
BRANCH_RETURN: 3.67e-05

LLC TOTAL        ACCESS:    5043915 HIT:     391238 MISS:    4652677
LLC LOAD         ACCESS:    1954446 HIT:     154439 MISS:    1800007
LLC RFO          ACCESS:     561710 HIT:      40781 MISS:     520929
LLC PREFETCH     ACCESS:    1954446 HIT:     154083 MISS:    1800363
LLC WRITE        ACCESS:     562068 HIT:      41613 MISS:     520455
LLC TRANSLATION  ACCESS:      11245 HIT:        322 MISS:      10923
LLC PREFETCH REQUESTED:    1954446 ISSUED:    1954446 USEFUL:       7827 USELESS:    1792112
LLC AVERAGE MISS LATENCY: 908.4 cycles
cpu0_DTLB TOTAL        ACCESS:  130548979 HIT:  128534146 MISS:    2014833
cpu0_DTLB LOAD         ACCESS:  130548979 HIT:  128534146 MISS:    2014833
cpu0_DTLB RFO          ACCESS:          0 HIT:          0 MISS:          0
cpu0_DTLB PREFETCH     ACCESS:          0 HIT:          0 MISS:          0
cpu0_DTLB WRITE        ACCESS:          0 HIT:          0 MISS:          0
cpu0_DTLB TRANSLATION  ACCESS:          0 HIT:          0 MISS:          0
cpu0_DTLB PREFETCH REQUESTED:          0 ISSUED:          0 USEFUL:          0 USELESS:          0
cpu0_DTLB AVERAGE MISS LATENCY: 22 cycles
cpu0_ITLB TOTAL        ACCESS:       4980 HIT:       4749 MISS:        231
cpu0_ITLB LOAD         ACCESS:       4980 HIT:       4749 MISS:        231
cpu0_ITLB RFO          ACCESS:          0 HIT:          0 MISS:          0
cpu0_ITLB PREFETCH     ACCESS:          0 HIT:          0 MISS:          0
cpu0_ITLB WRITE        ACCESS:          0 HIT:          0 MISS:          0
cpu0_ITLB TRANSLATION  ACCESS:          0 HIT:          0 MISS:          0
cpu0_ITLB PREFETCH REQUESTED:          0 ISSUED:          0 USEFUL:          0 USELESS:          0
cpu0_ITLB AVERAGE MISS LATENCY: 68.35 cycles
cpu0_L1D TOTAL        ACCESS:  178269135 HIT:  166978019 MISS:   11291116
cpu0_L1D LOAD         ACCESS:   69954120 HIT:   67914929 MISS:    2039191
cpu0_L1D RFO          ACCESS:          0 HIT:          0 MISS:          0
cpu0_L1D PREFETCH     ACCESS:          0 HIT:          0 MISS:          0
cpu0_L1D WRITE        ACCESS:  107009522 HIT:   98503857 MISS:    8505665
cpu0_L1D TRANSLATION  ACCESS:    1305493 HIT:     559233 MISS:     746260
cpu0_L1D PREFETCH REQUESTED:          0 ISSUED:          0 USEFUL:          0 USELESS:          0
cpu0_L1D AVERAGE MISS LATENCY: 197.1 cycles
cpu0_L1I TOTAL        ACCESS:       5686 HIT:       3301 MISS:       2385
cpu0_L1I LOAD         ACCESS:       5686 HIT:       3301 MISS:       2385
cpu0_L1I RFO          ACCESS:          0 HIT:          0 MISS:          0
cpu0_L1I PREFETCH     ACCESS:          0 HIT:          0 MISS:          0
cpu0_L1I WRITE        ACCESS:          0 HIT:          0 MISS:          0
cpu0_L1I TRANSLATION  ACCESS:          0 HIT:          0 MISS:          0
cpu0_L1I PREFETCH REQUESTED:          0 ISSUED:          0 USEFUL:          0 USELESS:          0
cpu0_L1I AVERAGE MISS LATENCY: 104.4 cycles
cpu0_L2C TOTAL        ACCESS:    3903918 HIT:    1376499 MISS:    2527419
cpu0_L2C LOAD         ACCESS:    2009350 HIT:      54904 MISS:    1954446
cpu0_L2C RFO          ACCESS:     573645 HIT:      11935 MISS:     561710
cpu0_L2C PREFETCH     ACCESS:          0 HIT:          0 MISS:          0
cpu0_L2C WRITE        ACCESS:     574686 HIT:     574668 MISS:         18
cpu0_L2C TRANSLATION  ACCESS:     746237 HIT:     734992 MISS:      11245
cpu0_L2C PREFETCH REQUESTED:          0 ISSUED:          0 USEFUL:          0 USELESS:          0
cpu0_L2C AVERAGE MISS LATENCY: 902.5 cycles
cpu0_STLB TOTAL        ACCESS:    1982645 HIT:     677160 MISS:    1305485
cpu0_STLB LOAD         ACCESS:    1982645 HIT:     677160 MISS:    1305485
cpu0_STLB RFO          ACCESS:          0 HIT:          0 MISS:          0
cpu0_STLB PREFETCH     ACCESS:          0 HIT:          0 MISS:          0
cpu0_STLB WRITE        ACCESS:          0 HIT:          0 MISS:          0
cpu0_STLB TRANSLATION  ACCESS:          0 HIT:          0 MISS:          0
cpu0_STLB PREFETCH REQUESTED:          0 ISSUED:          0 USEFUL:          0 USELESS:          0
cpu0_STLB AVERAGE MISS LATENCY: 20.87 cycles

DRAM Statistics

Channel 0 RQ ROW_BUFFER_HIT:      94331
  ROW_BUFFER_MISS:    4036587
 AVG DBUS CONGESTED CYCLE: 3.972
WQ ROW_BUFFER_HIT: Channel 0 
  ROW_BUFFER_MISS:     178597
  FULL:     342487
