WARNING: physical memory size is smaller than virtual memory size.

*** ChampSim Multicore Out-of-Order Simulator ***
Warmup Instructions: 50000000
Simulation Instructions: 600000000
Number of CPUs: 1
Page size: 4096

CPU 0 Tage branch predictor
Off-chip DRAM Size: 4 GiB Channels: 1 Width: 64-bit Data Race: 3200 MT/s
Heartbeat CPU 0 instructions: 10000000 cycles: 2565785 heartbeat IPC: 3.897 cumulative IPC: 3.897 (Simulation time: 00 hr 00 min 36 sec)
Heartbeat CPU 0 instructions: 20000000 cycles: 5131274 heartbeat IPC: 3.898 cumulative IPC: 3.898 (Simulation time: 00 hr 01 min 30 sec)
Heartbeat CPU 0 instructions: 30000000 cycles: 7631274 heartbeat IPC: 4 cumulative IPC: 3.931 (Simulation time: 00 hr 02 min 29 sec)
Heartbeat CPU 0 instructions: 40000000 cycles: 10131274 heartbeat IPC: 4 cumulative IPC: 3.948 (Simulation time: 00 hr 03 min 38 sec)
Heartbeat CPU 0 instructions: 50000000 cycles: 12631274 heartbeat IPC: 4 cumulative IPC: 3.958 (Simulation time: 00 hr 04 min 57 sec)
Warmup finished CPU 0 instructions: 50000000 cycles: 12631275 cumulative IPC: 3.958 (Simulation time: 00 hr 04 min 57 sec)
Warmup complete CPU 0 instructions: 50000000 cycles: 12631275 cumulative IPC: 3.958 (Simulation time: 00 hr 04 min 57 sec)
Heartbeat CPU 0 instructions: 60000002 cycles: 15446860 heartbeat IPC: 3.552 cumulative IPC: 3.552 (Simulation time: 00 hr 06 min 36 sec)
Heartbeat CPU 0 instructions: 70000001 cycles: 18261922 heartbeat IPC: 3.552 cumulative IPC: 3.552 (Simulation time: 00 hr 08 min 07 sec)
Heartbeat CPU 0 instructions: 80000004 cycles: 21079021 heartbeat IPC: 3.55 cumulative IPC: 3.551 (Simulation time: 00 hr 09 min 33 sec)
Heartbeat CPU 0 instructions: 90000000 cycles: 23893913 heartbeat IPC: 3.553 cumulative IPC: 3.552 (Simulation time: 00 hr 11 min 08 sec)
Heartbeat CPU 0 instructions: 100000003 cycles: 26710910 heartbeat IPC: 3.55 cumulative IPC: 3.551 (Simulation time: 00 hr 12 min 52 sec)
Heartbeat CPU 0 instructions: 110000000 cycles: 29526056 heartbeat IPC: 3.552 cumulative IPC: 3.551 (Simulation time: 00 hr 14 min 26 sec)
Heartbeat CPU 0 instructions: 120000002 cycles: 32340652 heartbeat IPC: 3.553 cumulative IPC: 3.552 (Simulation time: 00 hr 16 min 03 sec)
Heartbeat CPU 0 instructions: 130000001 cycles: 35155871 heartbeat IPC: 3.552 cumulative IPC: 3.552 (Simulation time: 00 hr 17 min 34 sec)
Heartbeat CPU 0 instructions: 140000002 cycles: 37970732 heartbeat IPC: 3.553 cumulative IPC: 3.552 (Simulation time: 00 hr 19 min 14 sec)
Heartbeat CPU 0 instructions: 150000000 cycles: 40786093 heartbeat IPC: 3.552 cumulative IPC: 3.552 (Simulation time: 00 hr 20 min 17 sec)
Heartbeat CPU 0 instructions: 160000002 cycles: 43603215 heartbeat IPC: 3.55 cumulative IPC: 3.552 (Simulation time: 00 hr 21 min 14 sec)
Heartbeat CPU 0 instructions: 170000000 cycles: 46419904 heartbeat IPC: 3.55 cumulative IPC: 3.551 (Simulation time: 00 hr 22 min 16 sec)
Heartbeat CPU 0 instructions: 180000003 cycles: 49235188 heartbeat IPC: 3.552 cumulative IPC: 3.552 (Simulation time: 00 hr 23 min 25 sec)
Heartbeat CPU 0 instructions: 190000001 cycles: 52051321 heartbeat IPC: 3.551 cumulative IPC: 3.551 (Simulation time: 00 hr 24 min 26 sec)
Heartbeat CPU 0 instructions: 200000001 cycles: 54867266 heartbeat IPC: 3.551 cumulative IPC: 3.551 (Simulation time: 00 hr 25 min 24 sec)
Heartbeat CPU 0 instructions: 210000004 cycles: 57683189 heartbeat IPC: 3.551 cumulative IPC: 3.551 (Simulation time: 00 hr 26 min 20 sec)
Heartbeat CPU 0 instructions: 220000002 cycles: 60498850 heartbeat IPC: 3.552 cumulative IPC: 3.551 (Simulation time: 00 hr 27 min 17 sec)
Heartbeat CPU 0 instructions: 230000001 cycles: 63622945 heartbeat IPC: 3.201 cumulative IPC: 3.53 (Simulation time: 00 hr 28 min 26 sec)
Heartbeat CPU 0 instructions: 240000003 cycles: 66253739 heartbeat IPC: 3.801 cumulative IPC: 3.543 (Simulation time: 00 hr 29 min 34 sec)
Heartbeat CPU 0 instructions: 250000003 cycles: 69069180 heartbeat IPC: 3.552 cumulative IPC: 3.544 (Simulation time: 00 hr 30 min 31 sec)
Heartbeat CPU 0 instructions: 260000002 cycles: 71883349 heartbeat IPC: 3.553 cumulative IPC: 3.544 (Simulation time: 00 hr 31 min 31 sec)
Heartbeat CPU 0 instructions: 270000004 cycles: 74698238 heartbeat IPC: 3.553 cumulative IPC: 3.545 (Simulation time: 00 hr 32 min 27 sec)
Heartbeat CPU 0 instructions: 280000001 cycles: 77514668 heartbeat IPC: 3.551 cumulative IPC: 3.545 (Simulation time: 00 hr 33 min 23 sec)
Heartbeat CPU 0 instructions: 290000002 cycles: 80330160 heartbeat IPC: 3.552 cumulative IPC: 3.545 (Simulation time: 00 hr 34 min 20 sec)
Heartbeat CPU 0 instructions: 300000004 cycles: 83146690 heartbeat IPC: 3.55 cumulative IPC: 3.545 (Simulation time: 00 hr 35 min 17 sec)
Heartbeat CPU 0 instructions: 310000002 cycles: 85963339 heartbeat IPC: 3.55 cumulative IPC: 3.546 (Simulation time: 00 hr 36 min 15 sec)
Heartbeat CPU 0 instructions: 320000000 cycles: 88779803 heartbeat IPC: 3.551 cumulative IPC: 3.546 (Simulation time: 00 hr 37 min 12 sec)
Heartbeat CPU 0 instructions: 330000004 cycles: 91595878 heartbeat IPC: 3.551 cumulative IPC: 3.546 (Simulation time: 00 hr 38 min 08 sec)
Heartbeat CPU 0 instructions: 340000000 cycles: 94412724 heartbeat IPC: 3.55 cumulative IPC: 3.546 (Simulation time: 00 hr 39 min 05 sec)
Heartbeat CPU 0 instructions: 350000003 cycles: 97228765 heartbeat IPC: 3.551 cumulative IPC: 3.546 (Simulation time: 00 hr 40 min 02 sec)
Heartbeat CPU 0 instructions: 360000003 cycles: 100045037 heartbeat IPC: 3.551 cumulative IPC: 3.546 (Simulation time: 00 hr 40 min 58 sec)
Heartbeat CPU 0 instructions: 370000003 cycles: 102861940 heartbeat IPC: 3.55 cumulative IPC: 3.546 (Simulation time: 00 hr 41 min 56 sec)
Heartbeat CPU 0 instructions: 380000003 cycles: 105676927 heartbeat IPC: 3.552 cumulative IPC: 3.547 (Simulation time: 00 hr 42 min 54 sec)
Heartbeat CPU 0 instructions: 390000000 cycles: 108492228 heartbeat IPC: 3.552 cumulative IPC: 3.547 (Simulation time: 00 hr 43 min 55 sec)
Heartbeat CPU 0 instructions: 400000002 cycles: 111309299 heartbeat IPC: 3.55 cumulative IPC: 3.547 (Simulation time: 00 hr 44 min 56 sec)
Heartbeat CPU 0 instructions: 410000004 cycles: 114124883 heartbeat IPC: 3.552 cumulative IPC: 3.547 (Simulation time: 00 hr 45 min 55 sec)
Heartbeat CPU 0 instructions: 420000001 cycles: 116942138 heartbeat IPC: 3.55 cumulative IPC: 3.547 (Simulation time: 00 hr 46 min 58 sec)
Heartbeat CPU 0 instructions: 430000001 cycles: 119757285 heartbeat IPC: 3.552 cumulative IPC: 3.547 (Simulation time: 00 hr 47 min 59 sec)
Heartbeat CPU 0 instructions: 440000002 cycles: 122573179 heartbeat IPC: 3.551 cumulative IPC: 3.547 (Simulation time: 00 hr 48 min 56 sec)
Heartbeat CPU 0 instructions: 450000001 cycles: 125208873 heartbeat IPC: 3.794 cumulative IPC: 3.553 (Simulation time: 00 hr 49 min 55 sec)
Heartbeat CPU 0 instructions: 460000002 cycles: 127832109 heartbeat IPC: 3.812 cumulative IPC: 3.559 (Simulation time: 00 hr 51 min 03 sec)
Heartbeat CPU 0 instructions: 470000004 cycles: 130648837 heartbeat IPC: 3.55 cumulative IPC: 3.559 (Simulation time: 00 hr 52 min 04 sec)
Heartbeat CPU 0 instructions: 480000000 cycles: 133464922 heartbeat IPC: 3.551 cumulative IPC: 3.559 (Simulation time: 00 hr 53 min 03 sec)
Heartbeat CPU 0 instructions: 490000000 cycles: 136281583 heartbeat IPC: 3.55 cumulative IPC: 3.558 (Simulation time: 00 hr 54 min 03 sec)
Heartbeat CPU 0 instructions: 500000002 cycles: 139097092 heartbeat IPC: 3.552 cumulative IPC: 3.558 (Simulation time: 00 hr 55 min 02 sec)
Heartbeat CPU 0 instructions: 510000001 cycles: 141912590 heartbeat IPC: 3.552 cumulative IPC: 3.558 (Simulation time: 00 hr 55 min 59 sec)
Heartbeat CPU 0 instructions: 520000003 cycles: 144728712 heartbeat IPC: 3.551 cumulative IPC: 3.558 (Simulation time: 00 hr 56 min 57 sec)
Heartbeat CPU 0 instructions: 530000002 cycles: 147544738 heartbeat IPC: 3.551 cumulative IPC: 3.558 (Simulation time: 00 hr 58 min 05 sec)
Heartbeat CPU 0 instructions: 540000000 cycles: 150360521 heartbeat IPC: 3.551 cumulative IPC: 3.558 (Simulation time: 00 hr 59 min 12 sec)
Heartbeat CPU 0 instructions: 550000000 cycles: 153175426 heartbeat IPC: 3.553 cumulative IPC: 3.558 (Simulation time: 01 hr 00 min 18 sec)
Heartbeat CPU 0 instructions: 560000001 cycles: 155991333 heartbeat IPC: 3.551 cumulative IPC: 3.557 (Simulation time: 01 hr 01 min 28 sec)
Heartbeat CPU 0 instructions: 570000001 cycles: 158808292 heartbeat IPC: 3.55 cumulative IPC: 3.557 (Simulation time: 01 hr 02 min 31 sec)
Heartbeat CPU 0 instructions: 580000002 cycles: 161625003 heartbeat IPC: 3.55 cumulative IPC: 3.557 (Simulation time: 01 hr 03 min 34 sec)
Heartbeat CPU 0 instructions: 590000003 cycles: 164440142 heartbeat IPC: 3.552 cumulative IPC: 3.557 (Simulation time: 01 hr 04 min 34 sec)
*** Reached end of trace: (0, "traces/l1l2cache.champsimtrace")
Heartbeat CPU 0 instructions: 600000001 cycles: 167257148 heartbeat IPC: 3.55 cumulative IPC: 3.557 (Simulation time: 01 hr 05 min 34 sec)
Heartbeat CPU 0 instructions: 610000001 cycles: 173292216 heartbeat IPC: 1.657 cumulative IPC: 3.486 (Simulation time: 01 hr 07 min 22 sec)
Heartbeat CPU 0 instructions: 620000004 cycles: 175931472 heartbeat IPC: 3.789 cumulative IPC: 3.491 (Simulation time: 01 hr 08 min 31 sec)
Heartbeat CPU 0 instructions: 630000004 cycles: 178746242 heartbeat IPC: 3.553 cumulative IPC: 3.492 (Simulation time: 01 hr 09 min 35 sec)
Heartbeat CPU 0 instructions: 640000000 cycles: 181562259 heartbeat IPC: 3.551 cumulative IPC: 3.493 (Simulation time: 01 hr 10 min 41 sec)
Heartbeat CPU 0 instructions: 650000004 cycles: 184377646 heartbeat IPC: 3.552 cumulative IPC: 3.494 (Simulation time: 01 hr 11 min 50 sec)
Simulation finished CPU 0 instructions: 600000004 cycles: 171746372 cumulative IPC: 3.494 (Simulation time: 01 hr 11 min 50 sec)
Simulation complete CPU 0 instructions: 600000004 cycles: 171746372 cumulative IPC: 3.494 (Simulation time: 01 hr 11 min 50 sec)

ChampSim completed all CPUs

=== Simulation ===
CPU 0 runs traces/l1l2cache.champsimtrace
Region of Interest Statistics

CPU 0 cumulative IPC: 3.494 instructions: 600000004 cycles: 171746372
CPU 0 Branch Prediction Accuracy: 97.76% MPKI: 1.901 Average ROB Occupancy at Mispredict: 151.3
Branch type MPKI
BRANCH_DIRECT_JUMP: 9.5e-05
BRANCH_INDIRECT: 0.000282
BRANCH_CONDITIONAL: 1.9
BRANCH_DIRECT_CALL: 3.33e-06
BRANCH_INDIRECT_CALL: 4.83e-05
BRANCH_RETURN: 3.33e-05

LLC TOTAL        ACCESS:     408943 HIT:     372144 MISS:      36799
LLC LOAD         ACCESS:      59445 HIT:      51523 MISS:       7922
LLC RFO          ACCESS:      99913 HIT:      76672 MISS:      23241
LLC PREFETCH     ACCESS:     149278 HIT:     144821 MISS:       4457
LLC WRITE        ACCESS:     100302 HIT:      99128 MISS:       1174
LLC TRANSLATION  ACCESS:          5 HIT:          0 MISS:          5
LLC PREFETCH REQUESTED:     149278 ISSUED:     149278 USEFUL:       2232 USELESS:        144
LLC AVERAGE MISS LATENCY: 586.3 cycles
cpu0_DTLB TOTAL        ACCESS:   78820124 HIT:   78809247 MISS:      10877
cpu0_DTLB LOAD         ACCESS:   78820124 HIT:   78809247 MISS:      10877
cpu0_DTLB RFO          ACCESS:          0 HIT:          0 MISS:          0
cpu0_DTLB PREFETCH     ACCESS:          0 HIT:          0 MISS:          0
cpu0_DTLB WRITE        ACCESS:          0 HIT:          0 MISS:          0
cpu0_DTLB TRANSLATION  ACCESS:          0 HIT:          0 MISS:          0
cpu0_DTLB PREFETCH REQUESTED:          0 ISSUED:          0 USEFUL:          0 USELESS:          0
cpu0_DTLB AVERAGE MISS LATENCY: 5.839 cycles
cpu0_ITLB TOTAL        ACCESS:       5633 HIT:       5393 MISS:        240
cpu0_ITLB LOAD         ACCESS:       5633 HIT:       5393 MISS:        240
cpu0_ITLB RFO          ACCESS:          0 HIT:          0 MISS:          0
cpu0_ITLB PREFETCH     ACCESS:          0 HIT:          0 MISS:          0
cpu0_ITLB WRITE        ACCESS:          0 HIT:          0 MISS:          0
cpu0_ITLB TRANSLATION  ACCESS:          0 HIT:          0 MISS:          0
cpu0_ITLB PREFETCH REQUESTED:          0 ISSUED:          0 USEFUL:          0 USELESS:          0
cpu0_ITLB AVERAGE MISS LATENCY: 5.771 cycles
cpu0_L1D TOTAL        ACCESS:   97921801 HIT:   96527237 MISS:    1394564
cpu0_L1D LOAD         ACCESS:   38698799 HIT:   38349300 MISS:     349499
cpu0_L1D RFO          ACCESS:          0 HIT:          0 MISS:          0
cpu0_L1D PREFETCH     ACCESS:          0 HIT:          0 MISS:          0
cpu0_L1D WRITE        ACCESS:   59222744 HIT:   58177684 MISS:    1045060
cpu0_L1D TRANSLATION  ACCESS:        258 HIT:        253 MISS:          5
cpu0_L1D PREFETCH REQUESTED:          0 ISSUED:          0 USEFUL:          0 USELESS:          0
cpu0_L1D AVERAGE MISS LATENCY: 13.31 cycles
cpu0_L1I TOTAL        ACCESS:       6421 HIT:       3967 MISS:       2454
cpu0_L1I LOAD         ACCESS:       6421 HIT:       3967 MISS:       2454
cpu0_L1I RFO          ACCESS:          0 HIT:          0 MISS:          0
cpu0_L1I PREFETCH     ACCESS:          0 HIT:          0 MISS:          0
cpu0_L1I WRITE        ACCESS:          0 HIT:          0 MISS:          0
cpu0_L1I TRANSLATION  ACCESS:          0 HIT:          0 MISS:          0
cpu0_L1I PREFETCH REQUESTED:          0 ISSUED:          0 USEFUL:          0 USELESS:          0
cpu0_L1I AVERAGE MISS LATENCY: 463.6 cycles
cpu0_L2C TOTAL        ACCESS:     265734 HIT:     106347 MISS:     159387
cpu0_L2C LOAD         ACCESS:      63735 HIT:       4290 MISS:      59445
cpu0_L2C RFO          ACCESS:     100732 HIT:        819 MISS:      99913
cpu0_L2C PREFETCH     ACCESS:          0 HIT:          0 MISS:          0
cpu0_L2C WRITE        ACCESS:     101262 HIT:     101238 MISS:         24
cpu0_L2C TRANSLATION  ACCESS:          5 HIT:          0 MISS:          5
cpu0_L2C PREFETCH REQUESTED:          0 ISSUED:          0 USEFUL:          0 USELESS:          0
cpu0_L2C AVERAGE MISS LATENCY: 143.9 cycles
cpu0_STLB TOTAL        ACCESS:       3911 HIT:       3654 MISS:        257
cpu0_STLB LOAD         ACCESS:       3911 HIT:       3654 MISS:        257
cpu0_STLB RFO          ACCESS:          0 HIT:          0 MISS:          0
cpu0_STLB PREFETCH     ACCESS:          0 HIT:          0 MISS:          0
cpu0_STLB WRITE        ACCESS:          0 HIT:          0 MISS:          0
cpu0_STLB TRANSLATION  ACCESS:          0 HIT:          0 MISS:          0
cpu0_STLB PREFETCH REQUESTED:          0 ISSUED:          0 USEFUL:          0 USELESS:          0
cpu0_STLB AVERAGE MISS LATENCY: 218.5 cycles

DRAM Statistics

Channel 0 RQ ROW_BUFFER_HIT:      18076
  ROW_BUFFER_MISS:      14713
 AVG DBUS CONGESTED CYCLE: 3.958
WQ ROW_BUFFER_HIT: Channel 0 
  ROW_BUFFER_MISS:       1447
  FULL:       9407
Final OPTGen Hits: 4618
Final OPTGen Access: 3472
Final OPTGEN Hit Rate: 133.007
