WARNING: physical memory size is smaller than virtual memory size.

*** ChampSim Multicore Out-of-Order Simulator ***
Warmup Instructions: 50000000
Simulation Instructions: 600000000
Number of CPUs: 1
Page size: 4096

CPU 0 Tage branch predictor
Off-chip DRAM Size: 4 GiB Channels: 1 Width: 64-bit Data Race: 3200 MT/s
Heartbeat CPU 0 instructions: 10000000 cycles: 2565785 heartbeat IPC: 3.897 cumulative IPC: 3.897 (Simulation time: 00 hr 01 min 30 sec)
Heartbeat CPU 0 instructions: 20000000 cycles: 5131274 heartbeat IPC: 3.898 cumulative IPC: 3.898 (Simulation time: 00 hr 02 min 50 sec)
Heartbeat CPU 0 instructions: 30000000 cycles: 7631274 heartbeat IPC: 4 cumulative IPC: 3.931 (Simulation time: 00 hr 04 min 13 sec)
Heartbeat CPU 0 instructions: 40000000 cycles: 10131274 heartbeat IPC: 4 cumulative IPC: 3.948 (Simulation time: 00 hr 05 min 32 sec)
Heartbeat CPU 0 instructions: 50000000 cycles: 12631274 heartbeat IPC: 4 cumulative IPC: 3.958 (Simulation time: 00 hr 07 min 04 sec)
Warmup finished CPU 0 instructions: 50000000 cycles: 12631275 cumulative IPC: 3.958 (Simulation time: 00 hr 07 min 04 sec)
Warmup complete CPU 0 instructions: 50000000 cycles: 12631275 cumulative IPC: 3.958 (Simulation time: 00 hr 07 min 04 sec)
Heartbeat CPU 0 instructions: 60000002 cycles: 15446860 heartbeat IPC: 3.552 cumulative IPC: 3.552 (Simulation time: 00 hr 08 min 29 sec)
Heartbeat CPU 0 instructions: 70000001 cycles: 18261922 heartbeat IPC: 3.552 cumulative IPC: 3.552 (Simulation time: 00 hr 10 min 05 sec)
Heartbeat CPU 0 instructions: 80000004 cycles: 21079021 heartbeat IPC: 3.55 cumulative IPC: 3.551 (Simulation time: 00 hr 11 min 36 sec)
Heartbeat CPU 0 instructions: 90000000 cycles: 23893913 heartbeat IPC: 3.553 cumulative IPC: 3.552 (Simulation time: 00 hr 13 min 13 sec)
Heartbeat CPU 0 instructions: 100000003 cycles: 26710910 heartbeat IPC: 3.55 cumulative IPC: 3.551 (Simulation time: 00 hr 14 min 21 sec)
Heartbeat CPU 0 instructions: 110000000 cycles: 29526056 heartbeat IPC: 3.552 cumulative IPC: 3.551 (Simulation time: 00 hr 15 min 19 sec)
Heartbeat CPU 0 instructions: 120000002 cycles: 32340652 heartbeat IPC: 3.553 cumulative IPC: 3.552 (Simulation time: 00 hr 16 min 22 sec)
Heartbeat CPU 0 instructions: 130000001 cycles: 35155871 heartbeat IPC: 3.552 cumulative IPC: 3.552 (Simulation time: 00 hr 17 min 30 sec)
Heartbeat CPU 0 instructions: 140000002 cycles: 37970732 heartbeat IPC: 3.553 cumulative IPC: 3.552 (Simulation time: 00 hr 18 min 31 sec)
Heartbeat CPU 0 instructions: 150000000 cycles: 40786093 heartbeat IPC: 3.552 cumulative IPC: 3.552 (Simulation time: 00 hr 19 min 28 sec)
Heartbeat CPU 0 instructions: 160000002 cycles: 43603215 heartbeat IPC: 3.55 cumulative IPC: 3.552 (Simulation time: 00 hr 20 min 25 sec)
Heartbeat CPU 0 instructions: 170000000 cycles: 46419904 heartbeat IPC: 3.55 cumulative IPC: 3.551 (Simulation time: 00 hr 21 min 23 sec)
Heartbeat CPU 0 instructions: 180000003 cycles: 49235188 heartbeat IPC: 3.552 cumulative IPC: 3.552 (Simulation time: 00 hr 22 min 22 sec)
Heartbeat CPU 0 instructions: 190000001 cycles: 52051321 heartbeat IPC: 3.551 cumulative IPC: 3.551 (Simulation time: 00 hr 23 min 27 sec)
Heartbeat CPU 0 instructions: 200000001 cycles: 54867266 heartbeat IPC: 3.551 cumulative IPC: 3.551 (Simulation time: 00 hr 24 min 25 sec)
Heartbeat CPU 0 instructions: 210000004 cycles: 57683189 heartbeat IPC: 3.551 cumulative IPC: 3.551 (Simulation time: 00 hr 25 min 26 sec)
Heartbeat CPU 0 instructions: 220000002 cycles: 60498850 heartbeat IPC: 3.552 cumulative IPC: 3.551 (Simulation time: 00 hr 26 min 23 sec)
Heartbeat CPU 0 instructions: 230000001 cycles: 63798860 heartbeat IPC: 3.03 cumulative IPC: 3.518 (Simulation time: 00 hr 27 min 30 sec)
Heartbeat CPU 0 instructions: 240000003 cycles: 72285930 heartbeat IPC: 1.178 cumulative IPC: 3.185 (Simulation time: 00 hr 29 min 32 sec)
Heartbeat CPU 0 instructions: 250000003 cycles: 75101371 heartbeat IPC: 3.552 cumulative IPC: 3.202 (Simulation time: 00 hr 30 min 30 sec)
Heartbeat CPU 0 instructions: 260000002 cycles: 77915540 heartbeat IPC: 3.553 cumulative IPC: 3.217 (Simulation time: 00 hr 31 min 29 sec)
Heartbeat CPU 0 instructions: 270000004 cycles: 80730429 heartbeat IPC: 3.553 cumulative IPC: 3.231 (Simulation time: 00 hr 32 min 26 sec)
Heartbeat CPU 0 instructions: 280000001 cycles: 83546859 heartbeat IPC: 3.551 cumulative IPC: 3.243 (Simulation time: 00 hr 33 min 27 sec)
Heartbeat CPU 0 instructions: 290000002 cycles: 86362351 heartbeat IPC: 3.552 cumulative IPC: 3.255 (Simulation time: 00 hr 34 min 25 sec)
Heartbeat CPU 0 instructions: 300000004 cycles: 89178881 heartbeat IPC: 3.55 cumulative IPC: 3.266 (Simulation time: 00 hr 35 min 22 sec)
Heartbeat CPU 0 instructions: 310000002 cycles: 91995530 heartbeat IPC: 3.55 cumulative IPC: 3.276 (Simulation time: 00 hr 36 min 23 sec)
Heartbeat CPU 0 instructions: 320000000 cycles: 94811994 heartbeat IPC: 3.551 cumulative IPC: 3.285 (Simulation time: 00 hr 37 min 22 sec)
Heartbeat CPU 0 instructions: 330000004 cycles: 97628069 heartbeat IPC: 3.551 cumulative IPC: 3.294 (Simulation time: 00 hr 38 min 25 sec)
Heartbeat CPU 0 instructions: 340000000 cycles: 100444915 heartbeat IPC: 3.55 cumulative IPC: 3.302 (Simulation time: 00 hr 39 min 26 sec)
Heartbeat CPU 0 instructions: 350000003 cycles: 103260956 heartbeat IPC: 3.551 cumulative IPC: 3.31 (Simulation time: 00 hr 40 min 27 sec)
Heartbeat CPU 0 instructions: 360000003 cycles: 106077228 heartbeat IPC: 3.551 cumulative IPC: 3.317 (Simulation time: 00 hr 41 min 30 sec)
Heartbeat CPU 0 instructions: 370000003 cycles: 108894131 heartbeat IPC: 3.55 cumulative IPC: 3.324 (Simulation time: 00 hr 42 min 29 sec)
Heartbeat CPU 0 instructions: 380000003 cycles: 111709118 heartbeat IPC: 3.552 cumulative IPC: 3.331 (Simulation time: 00 hr 43 min 28 sec)
Heartbeat CPU 0 instructions: 390000000 cycles: 114524419 heartbeat IPC: 3.552 cumulative IPC: 3.337 (Simulation time: 00 hr 44 min 28 sec)
Heartbeat CPU 0 instructions: 400000002 cycles: 117341490 heartbeat IPC: 3.55 cumulative IPC: 3.343 (Simulation time: 00 hr 45 min 32 sec)
Heartbeat CPU 0 instructions: 410000004 cycles: 120157074 heartbeat IPC: 3.552 cumulative IPC: 3.348 (Simulation time: 00 hr 46 min 32 sec)
Heartbeat CPU 0 instructions: 420000001 cycles: 122974329 heartbeat IPC: 3.55 cumulative IPC: 3.353 (Simulation time: 00 hr 47 min 33 sec)
Heartbeat CPU 0 instructions: 430000001 cycles: 125789476 heartbeat IPC: 3.552 cumulative IPC: 3.358 (Simulation time: 00 hr 48 min 35 sec)
Heartbeat CPU 0 instructions: 440000002 cycles: 128605370 heartbeat IPC: 3.551 cumulative IPC: 3.363 (Simulation time: 00 hr 49 min 34 sec)
Heartbeat CPU 0 instructions: 450000001 cycles: 131756086 heartbeat IPC: 3.174 cumulative IPC: 3.358 (Simulation time: 00 hr 50 min 41 sec)
Heartbeat CPU 0 instructions: 460000002 cycles: 140230930 heartbeat IPC: 1.18 cumulative IPC: 3.213 (Simulation time: 00 hr 52 min 56 sec)
Heartbeat CPU 0 instructions: 470000004 cycles: 143047658 heartbeat IPC: 3.55 cumulative IPC: 3.22 (Simulation time: 00 hr 54 min 06 sec)
Heartbeat CPU 0 instructions: 480000000 cycles: 145863743 heartbeat IPC: 3.551 cumulative IPC: 3.227 (Simulation time: 00 hr 55 min 14 sec)
Heartbeat CPU 0 instructions: 490000000 cycles: 148680404 heartbeat IPC: 3.55 cumulative IPC: 3.234 (Simulation time: 00 hr 56 min 20 sec)
Heartbeat CPU 0 instructions: 500000002 cycles: 151495913 heartbeat IPC: 3.552 cumulative IPC: 3.241 (Simulation time: 00 hr 57 min 22 sec)
Heartbeat CPU 0 instructions: 510000001 cycles: 154311411 heartbeat IPC: 3.552 cumulative IPC: 3.247 (Simulation time: 00 hr 58 min 24 sec)
Heartbeat CPU 0 instructions: 520000003 cycles: 157127533 heartbeat IPC: 3.551 cumulative IPC: 3.253 (Simulation time: 00 hr 59 min 25 sec)
Heartbeat CPU 0 instructions: 530000002 cycles: 159943559 heartbeat IPC: 3.551 cumulative IPC: 3.258 (Simulation time: 01 hr 00 min 28 sec)
Heartbeat CPU 0 instructions: 540000000 cycles: 162759342 heartbeat IPC: 3.551 cumulative IPC: 3.264 (Simulation time: 01 hr 01 min 40 sec)
Heartbeat CPU 0 instructions: 550000000 cycles: 165574247 heartbeat IPC: 3.553 cumulative IPC: 3.269 (Simulation time: 01 hr 02 min 43 sec)
Heartbeat CPU 0 instructions: 560000001 cycles: 168390154 heartbeat IPC: 3.551 cumulative IPC: 3.274 (Simulation time: 01 hr 03 min 46 sec)
Heartbeat CPU 0 instructions: 570000001 cycles: 171207113 heartbeat IPC: 3.55 cumulative IPC: 3.279 (Simulation time: 01 hr 04 min 50 sec)
Heartbeat CPU 0 instructions: 580000002 cycles: 174023824 heartbeat IPC: 3.55 cumulative IPC: 3.284 (Simulation time: 01 hr 06 min 00 sec)
Heartbeat CPU 0 instructions: 590000003 cycles: 176838963 heartbeat IPC: 3.552 cumulative IPC: 3.289 (Simulation time: 01 hr 07 min 06 sec)
*** Reached end of trace: (0, "traces/l1l2cache.champsimtrace")
Heartbeat CPU 0 instructions: 600000001 cycles: 179655969 heartbeat IPC: 3.55 cumulative IPC: 3.293 (Simulation time: 01 hr 08 min 10 sec)
Heartbeat CPU 0 instructions: 610000001 cycles: 182709178 heartbeat IPC: 3.275 cumulative IPC: 3.293 (Simulation time: 01 hr 09 min 18 sec)
Heartbeat CPU 0 instructions: 620000004 cycles: 185348146 heartbeat IPC: 3.789 cumulative IPC: 3.3 (Simulation time: 01 hr 10 min 29 sec)
Heartbeat CPU 0 instructions: 630000004 cycles: 188162916 heartbeat IPC: 3.553 cumulative IPC: 3.304 (Simulation time: 01 hr 11 min 28 sec)
Heartbeat CPU 0 instructions: 640000000 cycles: 190978933 heartbeat IPC: 3.551 cumulative IPC: 3.308 (Simulation time: 01 hr 12 min 32 sec)
Heartbeat CPU 0 instructions: 650000004 cycles: 193794320 heartbeat IPC: 3.552 cumulative IPC: 3.312 (Simulation time: 01 hr 13 min 35 sec)
Simulation finished CPU 0 instructions: 600000004 cycles: 181163046 cumulative IPC: 3.312 (Simulation time: 01 hr 13 min 35 sec)
Simulation complete CPU 0 instructions: 600000004 cycles: 181163046 cumulative IPC: 3.312 (Simulation time: 01 hr 13 min 35 sec)

ChampSim completed all CPUs

=== Simulation ===
CPU 0 runs traces/l1l2cache.champsimtrace
Region of Interest Statistics

CPU 0 cumulative IPC: 3.312 instructions: 600000004 cycles: 181163046
CPU 0 Branch Prediction Accuracy: 97.76% MPKI: 1.901 Average ROB Occupancy at Mispredict: 151.3
Branch type MPKI
BRANCH_DIRECT_JUMP: 9.5e-05
BRANCH_INDIRECT: 0.000282
BRANCH_CONDITIONAL: 1.9
BRANCH_DIRECT_CALL: 3.33e-06
BRANCH_INDIRECT_CALL: 4.83e-05
BRANCH_RETURN: 3.33e-05

LLC TOTAL        ACCESS:     259666 HIT:     137171 MISS:     122495
LLC LOAD         ACCESS:      59445 HIT:      34748 MISS:      24697
LLC RFO          ACCESS:      99913 HIT:      48391 MISS:      51522
LLC PREFETCH     ACCESS:          0 HIT:          0 MISS:          0
LLC WRITE        ACCESS:     100303 HIT:      54032 MISS:      46271
LLC TRANSLATION  ACCESS:          5 HIT:          0 MISS:          5
LLC PREFETCH REQUESTED:          0 ISSUED:          0 USEFUL:          0 USELESS:          0
LLC AVERAGE MISS LATENCY: 333.9 cycles
cpu0_DTLB TOTAL        ACCESS:   78768688 HIT:   78757700 MISS:      10988
cpu0_DTLB LOAD         ACCESS:   78768688 HIT:   78757700 MISS:      10988
cpu0_DTLB RFO          ACCESS:          0 HIT:          0 MISS:          0
cpu0_DTLB PREFETCH     ACCESS:          0 HIT:          0 MISS:          0
cpu0_DTLB WRITE        ACCESS:          0 HIT:          0 MISS:          0
cpu0_DTLB TRANSLATION  ACCESS:          0 HIT:          0 MISS:          0
cpu0_DTLB PREFETCH REQUESTED:          0 ISSUED:          0 USEFUL:          0 USELESS:          0
cpu0_DTLB AVERAGE MISS LATENCY: 5.793 cycles
cpu0_ITLB TOTAL        ACCESS:       5610 HIT:       5367 MISS:        243
cpu0_ITLB LOAD         ACCESS:       5610 HIT:       5367 MISS:        243
cpu0_ITLB RFO          ACCESS:          0 HIT:          0 MISS:          0
cpu0_ITLB PREFETCH     ACCESS:          0 HIT:          0 MISS:          0
cpu0_ITLB WRITE        ACCESS:          0 HIT:          0 MISS:          0
cpu0_ITLB TRANSLATION  ACCESS:          0 HIT:          0 MISS:          0
cpu0_ITLB PREFETCH REQUESTED:          0 ISSUED:          0 USEFUL:          0 USELESS:          0
cpu0_ITLB AVERAGE MISS LATENCY: 5.663 cycles
cpu0_L1D TOTAL        ACCESS:   97840249 HIT:   96043036 MISS:    1797213
cpu0_L1D LOAD         ACCESS:   38692513 HIT:   38190919 MISS:     501594
cpu0_L1D RFO          ACCESS:          0 HIT:          0 MISS:          0
cpu0_L1D PREFETCH     ACCESS:          0 HIT:          0 MISS:          0
cpu0_L1D WRITE        ACCESS:   59147478 HIT:   57851864 MISS:    1295614
cpu0_L1D TRANSLATION  ACCESS:        258 HIT:        253 MISS:          5
cpu0_L1D PREFETCH REQUESTED:          0 ISSUED:          0 USEFUL:          0 USELESS:          0
cpu0_L1D AVERAGE MISS LATENCY: 21.43 cycles
cpu0_L1I TOTAL        ACCESS:       6401 HIT:       3965 MISS:       2436
cpu0_L1I LOAD         ACCESS:       6401 HIT:       3965 MISS:       2436
cpu0_L1I RFO          ACCESS:          0 HIT:          0 MISS:          0
cpu0_L1I PREFETCH     ACCESS:          0 HIT:          0 MISS:          0
cpu0_L1I WRITE        ACCESS:          0 HIT:          0 MISS:          0
cpu0_L1I TRANSLATION  ACCESS:          0 HIT:          0 MISS:          0
cpu0_L1I PREFETCH REQUESTED:          0 ISSUED:          0 USEFUL:          0 USELESS:          0
cpu0_L1I AVERAGE MISS LATENCY: 108.8 cycles
cpu0_L2C TOTAL        ACCESS:     265760 HIT:     106378 MISS:     159382
cpu0_L2C LOAD         ACCESS:      63736 HIT:       4291 MISS:      59445
cpu0_L2C RFO          ACCESS:     100749 HIT:        836 MISS:      99913
cpu0_L2C PREFETCH     ACCESS:          0 HIT:          0 MISS:          0
cpu0_L2C WRITE        ACCESS:     101270 HIT:     101251 MISS:         19
cpu0_L2C TRANSLATION  ACCESS:          5 HIT:          0 MISS:          5
cpu0_L2C PREFETCH REQUESTED:          0 ISSUED:          0 USEFUL:          0 USELESS:          0
cpu0_L2C AVERAGE MISS LATENCY: 277.1 cycles
cpu0_STLB TOTAL        ACCESS:       3911 HIT:       3654 MISS:        257
cpu0_STLB LOAD         ACCESS:       3911 HIT:       3654 MISS:        257
cpu0_STLB RFO          ACCESS:          0 HIT:          0 MISS:          0
cpu0_STLB PREFETCH     ACCESS:          0 HIT:          0 MISS:          0
cpu0_STLB WRITE        ACCESS:          0 HIT:          0 MISS:          0
cpu0_STLB TRANSLATION  ACCESS:          0 HIT:          0 MISS:          0
cpu0_STLB PREFETCH REQUESTED:          0 ISSUED:          0 USEFUL:          0 USELESS:          0
cpu0_STLB AVERAGE MISS LATENCY: 218.4 cycles

DRAM Statistics

Channel 0 RQ ROW_BUFFER_HIT:      37219
  ROW_BUFFER_MISS:      38927
 AVG DBUS CONGESTED CYCLE: 3.94
WQ ROW_BUFFER_HIT: Channel 0 
  ROW_BUFFER_MISS:      27804
  FULL:      18913
