WARNING: physical memory size is smaller than virtual memory size.

*** ChampSim Multicore Out-of-Order Simulator ***
Warmup Instructions: 50000000
Simulation Instructions: 600000000
Number of CPUs: 1
Page size: 4096

CPU 0 Tage branch predictor
Off-chip DRAM Size: 4 GiB Channels: 1 Width: 64-bit Data Race: 3200 MT/s
Heartbeat CPU 0 instructions: 10000000 cycles: 2565785 heartbeat IPC: 3.897 cumulative IPC: 3.897 (Simulation time: 00 hr 00 min 30 sec)
Heartbeat CPU 0 instructions: 20000000 cycles: 5131274 heartbeat IPC: 3.898 cumulative IPC: 3.898 (Simulation time: 00 hr 01 min 04 sec)
Heartbeat CPU 0 instructions: 30000000 cycles: 7631274 heartbeat IPC: 4 cumulative IPC: 3.931 (Simulation time: 00 hr 01 min 42 sec)
Heartbeat CPU 0 instructions: 40000000 cycles: 10131274 heartbeat IPC: 4 cumulative IPC: 3.948 (Simulation time: 00 hr 02 min 42 sec)
Heartbeat CPU 0 instructions: 50000000 cycles: 12631274 heartbeat IPC: 4 cumulative IPC: 3.958 (Simulation time: 00 hr 03 min 45 sec)
Warmup finished CPU 0 instructions: 50000000 cycles: 12631275 cumulative IPC: 3.958 (Simulation time: 00 hr 03 min 45 sec)
Warmup complete CPU 0 instructions: 50000000 cycles: 12631275 cumulative IPC: 3.958 (Simulation time: 00 hr 03 min 45 sec)
Heartbeat CPU 0 instructions: 60000002 cycles: 15446860 heartbeat IPC: 3.552 cumulative IPC: 3.552 (Simulation time: 00 hr 05 min 11 sec)
Heartbeat CPU 0 instructions: 70000001 cycles: 18261922 heartbeat IPC: 3.552 cumulative IPC: 3.552 (Simulation time: 00 hr 06 min 50 sec)
Heartbeat CPU 0 instructions: 80000004 cycles: 21079021 heartbeat IPC: 3.55 cumulative IPC: 3.551 (Simulation time: 00 hr 08 min 28 sec)
Heartbeat CPU 0 instructions: 90000000 cycles: 23893913 heartbeat IPC: 3.553 cumulative IPC: 3.552 (Simulation time: 00 hr 10 min 02 sec)
Heartbeat CPU 0 instructions: 100000003 cycles: 26710910 heartbeat IPC: 3.55 cumulative IPC: 3.551 (Simulation time: 00 hr 11 min 38 sec)
Heartbeat CPU 0 instructions: 110000000 cycles: 29526056 heartbeat IPC: 3.552 cumulative IPC: 3.551 (Simulation time: 00 hr 13 min 25 sec)
Heartbeat CPU 0 instructions: 120000002 cycles: 32340652 heartbeat IPC: 3.553 cumulative IPC: 3.552 (Simulation time: 00 hr 14 min 58 sec)
Heartbeat CPU 0 instructions: 130000001 cycles: 35155871 heartbeat IPC: 3.552 cumulative IPC: 3.552 (Simulation time: 00 hr 16 min 33 sec)
Heartbeat CPU 0 instructions: 140000002 cycles: 37970732 heartbeat IPC: 3.553 cumulative IPC: 3.552 (Simulation time: 00 hr 18 min 05 sec)
Heartbeat CPU 0 instructions: 150000000 cycles: 40786093 heartbeat IPC: 3.552 cumulative IPC: 3.552 (Simulation time: 00 hr 19 min 42 sec)
Heartbeat CPU 0 instructions: 160000002 cycles: 43603215 heartbeat IPC: 3.55 cumulative IPC: 3.552 (Simulation time: 00 hr 20 min 54 sec)
Heartbeat CPU 0 instructions: 170000000 cycles: 46419904 heartbeat IPC: 3.55 cumulative IPC: 3.551 (Simulation time: 00 hr 21 min 51 sec)
Heartbeat CPU 0 instructions: 180000003 cycles: 49235188 heartbeat IPC: 3.552 cumulative IPC: 3.552 (Simulation time: 00 hr 22 min 53 sec)
Heartbeat CPU 0 instructions: 190000001 cycles: 52051321 heartbeat IPC: 3.551 cumulative IPC: 3.551 (Simulation time: 00 hr 23 min 56 sec)
Heartbeat CPU 0 instructions: 200000001 cycles: 54867266 heartbeat IPC: 3.551 cumulative IPC: 3.551 (Simulation time: 00 hr 25 min 03 sec)
Heartbeat CPU 0 instructions: 210000004 cycles: 57683189 heartbeat IPC: 3.551 cumulative IPC: 3.551 (Simulation time: 00 hr 26 min 00 sec)
Heartbeat CPU 0 instructions: 220000002 cycles: 60498850 heartbeat IPC: 3.552 cumulative IPC: 3.551 (Simulation time: 00 hr 26 min 57 sec)
Heartbeat CPU 0 instructions: 230000001 cycles: 63666705 heartbeat IPC: 3.157 cumulative IPC: 3.527 (Simulation time: 00 hr 28 min 03 sec)
Heartbeat CPU 0 instructions: 240000003 cycles: 66293944 heartbeat IPC: 3.806 cumulative IPC: 3.541 (Simulation time: 00 hr 29 min 08 sec)
Heartbeat CPU 0 instructions: 250000003 cycles: 69109385 heartbeat IPC: 3.552 cumulative IPC: 3.541 (Simulation time: 00 hr 30 min 11 sec)
Heartbeat CPU 0 instructions: 260000002 cycles: 71923554 heartbeat IPC: 3.553 cumulative IPC: 3.542 (Simulation time: 00 hr 31 min 08 sec)
Heartbeat CPU 0 instructions: 270000004 cycles: 74738443 heartbeat IPC: 3.553 cumulative IPC: 3.542 (Simulation time: 00 hr 32 min 07 sec)
Heartbeat CPU 0 instructions: 280000001 cycles: 77554873 heartbeat IPC: 3.551 cumulative IPC: 3.543 (Simulation time: 00 hr 33 min 07 sec)
Heartbeat CPU 0 instructions: 290000002 cycles: 80370365 heartbeat IPC: 3.552 cumulative IPC: 3.543 (Simulation time: 00 hr 34 min 05 sec)
Heartbeat CPU 0 instructions: 300000004 cycles: 83186895 heartbeat IPC: 3.55 cumulative IPC: 3.543 (Simulation time: 00 hr 35 min 02 sec)
Heartbeat CPU 0 instructions: 310000002 cycles: 86003544 heartbeat IPC: 3.55 cumulative IPC: 3.544 (Simulation time: 00 hr 35 min 59 sec)
Heartbeat CPU 0 instructions: 320000000 cycles: 88820008 heartbeat IPC: 3.551 cumulative IPC: 3.544 (Simulation time: 00 hr 36 min 57 sec)
Heartbeat CPU 0 instructions: 330000004 cycles: 91636083 heartbeat IPC: 3.551 cumulative IPC: 3.544 (Simulation time: 00 hr 37 min 55 sec)
Heartbeat CPU 0 instructions: 340000000 cycles: 94452929 heartbeat IPC: 3.55 cumulative IPC: 3.544 (Simulation time: 00 hr 38 min 52 sec)
Heartbeat CPU 0 instructions: 350000003 cycles: 97268970 heartbeat IPC: 3.551 cumulative IPC: 3.545 (Simulation time: 00 hr 39 min 49 sec)
Heartbeat CPU 0 instructions: 360000003 cycles: 100085242 heartbeat IPC: 3.551 cumulative IPC: 3.545 (Simulation time: 00 hr 40 min 47 sec)
Heartbeat CPU 0 instructions: 370000003 cycles: 102902145 heartbeat IPC: 3.55 cumulative IPC: 3.545 (Simulation time: 00 hr 41 min 44 sec)
Heartbeat CPU 0 instructions: 380000003 cycles: 105717132 heartbeat IPC: 3.552 cumulative IPC: 3.545 (Simulation time: 00 hr 42 min 44 sec)
Heartbeat CPU 0 instructions: 390000000 cycles: 108532433 heartbeat IPC: 3.552 cumulative IPC: 3.545 (Simulation time: 00 hr 43 min 41 sec)
Heartbeat CPU 0 instructions: 400000002 cycles: 111349504 heartbeat IPC: 3.55 cumulative IPC: 3.545 (Simulation time: 00 hr 44 min 41 sec)
Heartbeat CPU 0 instructions: 410000004 cycles: 114165088 heartbeat IPC: 3.552 cumulative IPC: 3.546 (Simulation time: 00 hr 45 min 42 sec)
Heartbeat CPU 0 instructions: 420000001 cycles: 116982343 heartbeat IPC: 3.55 cumulative IPC: 3.546 (Simulation time: 00 hr 46 min 41 sec)
Heartbeat CPU 0 instructions: 430000001 cycles: 119797490 heartbeat IPC: 3.552 cumulative IPC: 3.546 (Simulation time: 00 hr 47 min 41 sec)
Heartbeat CPU 0 instructions: 440000002 cycles: 122613384 heartbeat IPC: 3.551 cumulative IPC: 3.546 (Simulation time: 00 hr 48 min 40 sec)
Heartbeat CPU 0 instructions: 450000001 cycles: 125249566 heartbeat IPC: 3.793 cumulative IPC: 3.552 (Simulation time: 00 hr 49 min 41 sec)
Heartbeat CPU 0 instructions: 460000002 cycles: 127872802 heartbeat IPC: 3.812 cumulative IPC: 3.558 (Simulation time: 00 hr 50 min 42 sec)
Heartbeat CPU 0 instructions: 470000004 cycles: 130689530 heartbeat IPC: 3.55 cumulative IPC: 3.558 (Simulation time: 00 hr 51 min 45 sec)
Heartbeat CPU 0 instructions: 480000000 cycles: 133505615 heartbeat IPC: 3.551 cumulative IPC: 3.557 (Simulation time: 00 hr 52 min 48 sec)
Heartbeat CPU 0 instructions: 490000000 cycles: 136322276 heartbeat IPC: 3.55 cumulative IPC: 3.557 (Simulation time: 00 hr 53 min 47 sec)
Heartbeat CPU 0 instructions: 500000002 cycles: 139137785 heartbeat IPC: 3.552 cumulative IPC: 3.557 (Simulation time: 00 hr 54 min 47 sec)
Heartbeat CPU 0 instructions: 510000001 cycles: 141953283 heartbeat IPC: 3.552 cumulative IPC: 3.557 (Simulation time: 00 hr 55 min 47 sec)
Heartbeat CPU 0 instructions: 520000003 cycles: 144769405 heartbeat IPC: 3.551 cumulative IPC: 3.557 (Simulation time: 00 hr 56 min 44 sec)
Heartbeat CPU 0 instructions: 530000002 cycles: 147585431 heartbeat IPC: 3.551 cumulative IPC: 3.557 (Simulation time: 00 hr 57 min 44 sec)
Heartbeat CPU 0 instructions: 540000000 cycles: 150401214 heartbeat IPC: 3.551 cumulative IPC: 3.557 (Simulation time: 00 hr 58 min 50 sec)
Heartbeat CPU 0 instructions: 550000000 cycles: 153216119 heartbeat IPC: 3.553 cumulative IPC: 3.557 (Simulation time: 00 hr 59 min 56 sec)
Heartbeat CPU 0 instructions: 560000001 cycles: 156032026 heartbeat IPC: 3.551 cumulative IPC: 3.556 (Simulation time: 01 hr 01 min 04 sec)
Heartbeat CPU 0 instructions: 570000001 cycles: 158848985 heartbeat IPC: 3.55 cumulative IPC: 3.556 (Simulation time: 01 hr 02 min 16 sec)
Heartbeat CPU 0 instructions: 580000002 cycles: 161665696 heartbeat IPC: 3.55 cumulative IPC: 3.556 (Simulation time: 01 hr 03 min 18 sec)
Heartbeat CPU 0 instructions: 590000003 cycles: 164480835 heartbeat IPC: 3.552 cumulative IPC: 3.556 (Simulation time: 01 hr 04 min 20 sec)
*** Reached end of trace: (0, "traces/l1l2cache.champsimtrace")
Heartbeat CPU 0 instructions: 600000001 cycles: 167297841 heartbeat IPC: 3.55 cumulative IPC: 3.556 (Simulation time: 01 hr 05 min 19 sec)
Heartbeat CPU 0 instructions: 610000001 cycles: 173564729 heartbeat IPC: 1.596 cumulative IPC: 3.48 (Simulation time: 01 hr 07 min 01 sec)
Heartbeat CPU 0 instructions: 620000004 cycles: 176203695 heartbeat IPC: 3.789 cumulative IPC: 3.485 (Simulation time: 01 hr 08 min 15 sec)
Heartbeat CPU 0 instructions: 630000004 cycles: 179018465 heartbeat IPC: 3.553 cumulative IPC: 3.486 (Simulation time: 01 hr 09 min 17 sec)
Heartbeat CPU 0 instructions: 640000000 cycles: 181834482 heartbeat IPC: 3.551 cumulative IPC: 3.487 (Simulation time: 01 hr 10 min 18 sec)
Heartbeat CPU 0 instructions: 650000004 cycles: 184649869 heartbeat IPC: 3.552 cumulative IPC: 3.488 (Simulation time: 01 hr 11 min 22 sec)
Simulation finished CPU 0 instructions: 600000004 cycles: 172018595 cumulative IPC: 3.488 (Simulation time: 01 hr 11 min 22 sec)
Simulation complete CPU 0 instructions: 600000004 cycles: 172018595 cumulative IPC: 3.488 (Simulation time: 01 hr 11 min 22 sec)

ChampSim completed all CPUs

=== Simulation ===
CPU 0 runs traces/l1l2cache.champsimtrace
Region of Interest Statistics

CPU 0 cumulative IPC: 3.488 instructions: 600000004 cycles: 172018595
CPU 0 Branch Prediction Accuracy: 97.76% MPKI: 1.901 Average ROB Occupancy at Mispredict: 151.3
Branch type MPKI
BRANCH_DIRECT_JUMP: 9.5e-05
BRANCH_INDIRECT: 0.000282
BRANCH_CONDITIONAL: 1.9
BRANCH_DIRECT_CALL: 3.33e-06
BRANCH_INDIRECT_CALL: 4.83e-05
BRANCH_RETURN: 3.33e-05

LLC TOTAL        ACCESS:     319111 HIT:     277247 MISS:      41864
LLC LOAD         ACCESS:      59446 HIT:      53592 MISS:       5854
LLC RFO          ACCESS:      99912 HIT:      72887 MISS:      27025
LLC PREFETCH     ACCESS:      59446 HIT:      51464 MISS:       7982
LLC WRITE        ACCESS:     100302 HIT:      99303 MISS:        999
LLC TRANSLATION  ACCESS:          5 HIT:          1 MISS:          4
LLC PREFETCH REQUESTED:      59446 ISSUED:      59446 USEFUL:       5247 USELESS:       1717
LLC AVERAGE MISS LATENCY: 684.5 cycles
cpu0_DTLB TOTAL        ACCESS:   78786664 HIT:   78775829 MISS:      10835
cpu0_DTLB LOAD         ACCESS:   78786664 HIT:   78775829 MISS:      10835
cpu0_DTLB RFO          ACCESS:          0 HIT:          0 MISS:          0
cpu0_DTLB PREFETCH     ACCESS:          0 HIT:          0 MISS:          0
cpu0_DTLB WRITE        ACCESS:          0 HIT:          0 MISS:          0
cpu0_DTLB TRANSLATION  ACCESS:          0 HIT:          0 MISS:          0
cpu0_DTLB PREFETCH REQUESTED:          0 ISSUED:          0 USEFUL:          0 USELESS:          0
cpu0_DTLB AVERAGE MISS LATENCY: 5.829 cycles
cpu0_ITLB TOTAL        ACCESS:       5619 HIT:       5378 MISS:        241
cpu0_ITLB LOAD         ACCESS:       5619 HIT:       5378 MISS:        241
cpu0_ITLB RFO          ACCESS:          0 HIT:          0 MISS:          0
cpu0_ITLB PREFETCH     ACCESS:          0 HIT:          0 MISS:          0
cpu0_ITLB WRITE        ACCESS:          0 HIT:          0 MISS:          0
cpu0_ITLB TRANSLATION  ACCESS:          0 HIT:          0 MISS:          0
cpu0_ITLB PREFETCH REQUESTED:          0 ISSUED:          0 USEFUL:          0 USELESS:          0
cpu0_ITLB AVERAGE MISS LATENCY: 5.734 cycles
cpu0_L1D TOTAL        ACCESS:   97872960 HIT:   96481387 MISS:    1391573
cpu0_L1D LOAD         ACCESS:   38670498 HIT:   38324865 MISS:     345633
cpu0_L1D RFO          ACCESS:          0 HIT:          0 MISS:          0
cpu0_L1D PREFETCH     ACCESS:          0 HIT:          0 MISS:          0
cpu0_L1D WRITE        ACCESS:   59202204 HIT:   58156269 MISS:    1045935
cpu0_L1D TRANSLATION  ACCESS:        258 HIT:        253 MISS:          5
cpu0_L1D PREFETCH REQUESTED:          0 ISSUED:          0 USEFUL:          0 USELESS:          0
cpu0_L1D AVERAGE MISS LATENCY: 16.56 cycles
cpu0_L1I TOTAL        ACCESS:       6412 HIT:       3967 MISS:       2445
cpu0_L1I LOAD         ACCESS:       6412 HIT:       3967 MISS:       2445
cpu0_L1I RFO          ACCESS:          0 HIT:          0 MISS:          0
cpu0_L1I PREFETCH     ACCESS:          0 HIT:          0 MISS:          0
cpu0_L1I WRITE        ACCESS:          0 HIT:          0 MISS:          0
cpu0_L1I TRANSLATION  ACCESS:          0 HIT:          0 MISS:          0
cpu0_L1I PREFETCH REQUESTED:          0 ISSUED:          0 USEFUL:          0 USELESS:          0
cpu0_L1I AVERAGE MISS LATENCY: 427.7 cycles
cpu0_L2C TOTAL        ACCESS:     265738 HIT:     106351 MISS:     159387
cpu0_L2C LOAD         ACCESS:      63737 HIT:       4291 MISS:      59446
cpu0_L2C RFO          ACCESS:     100733 HIT:        821 MISS:      99912
cpu0_L2C PREFETCH     ACCESS:          0 HIT:          0 MISS:          0
cpu0_L2C WRITE        ACCESS:     101263 HIT:     101239 MISS:         24
cpu0_L2C TRANSLATION  ACCESS:          5 HIT:          0 MISS:          5
cpu0_L2C PREFETCH REQUESTED:          0 ISSUED:          0 USEFUL:          0 USELESS:          0
cpu0_L2C AVERAGE MISS LATENCY: 171.3 cycles
cpu0_STLB TOTAL        ACCESS:       3912 HIT:       3655 MISS:        257
cpu0_STLB LOAD         ACCESS:       3912 HIT:       3655 MISS:        257
cpu0_STLB RFO          ACCESS:          0 HIT:          0 MISS:          0
cpu0_STLB PREFETCH     ACCESS:          0 HIT:          0 MISS:          0
cpu0_STLB WRITE        ACCESS:          0 HIT:          0 MISS:          0
cpu0_STLB TRANSLATION  ACCESS:          0 HIT:          0 MISS:          0
cpu0_STLB PREFETCH REQUESTED:          0 ISSUED:          0 USEFUL:          0 USELESS:          0
cpu0_STLB AVERAGE MISS LATENCY: 216.6 cycles

DRAM Statistics

Channel 0 RQ ROW_BUFFER_HIT:      19770
  ROW_BUFFER_MISS:      17823
 AVG DBUS CONGESTED CYCLE: 3.971
WQ ROW_BUFFER_HIT: Channel 0 
  ROW_BUFFER_MISS:       1674
  FULL:      15007
Final OPTGen Hits: 2728
Final OPTGen Access: 3472
Final OPTGEN Hit Rate: 78.5715
