WARNING: physical memory size is smaller than virtual memory size.

*** ChampSim Multicore Out-of-Order Simulator ***
Warmup Instructions: 50000000
Simulation Instructions: 600000000
Number of CPUs: 1
Page size: 4096

CPU 0 Tage branch predictor
Off-chip DRAM Size: 4 GiB Channels: 1 Width: 64-bit Data Race: 3200 MT/s
Heartbeat CPU 0 instructions: 10000004 cycles: 2777663 heartbeat IPC: 3.6 cumulative IPC: 3.6 (Simulation time: 00 hr 00 min 20 sec)
Heartbeat CPU 0 instructions: 20000001 cycles: 5634805 heartbeat IPC: 3.5 cumulative IPC: 3.549 (Simulation time: 00 hr 00 min 40 sec)
Heartbeat CPU 0 instructions: 30000000 cycles: 8491948 heartbeat IPC: 3.5 cumulative IPC: 3.533 (Simulation time: 00 hr 01 min 01 sec)
Heartbeat CPU 0 instructions: 40000003 cycles: 11120601 heartbeat IPC: 3.804 cumulative IPC: 3.597 (Simulation time: 00 hr 01 min 28 sec)
Heartbeat CPU 0 instructions: 50000003 cycles: 13620601 heartbeat IPC: 4 cumulative IPC: 3.671 (Simulation time: 00 hr 02 min 01 sec)
Warmup finished CPU 0 instructions: 50000003 cycles: 13620602 cumulative IPC: 3.671 (Simulation time: 00 hr 02 min 01 sec)
Warmup complete CPU 0 instructions: 50000003 cycles: 13620602 cumulative IPC: 3.671 (Simulation time: 00 hr 02 min 01 sec)
Heartbeat CPU 0 instructions: 60000002 cycles: 16120603 heartbeat IPC: 4 cumulative IPC: 4 (Simulation time: 00 hr 02 min 38 sec)
Heartbeat CPU 0 instructions: 70000001 cycles: 18620602 heartbeat IPC: 4 cumulative IPC: 4 (Simulation time: 00 hr 03 min 21 sec)
Heartbeat CPU 0 instructions: 80000000 cycles: 21120601 heartbeat IPC: 4 cumulative IPC: 4 (Simulation time: 00 hr 04 min 11 sec)
Heartbeat CPU 0 instructions: 90000003 cycles: 23620910 heartbeat IPC: 4 cumulative IPC: 4 (Simulation time: 00 hr 05 min 05 sec)
Heartbeat CPU 0 instructions: 100000003 cycles: 26120911 heartbeat IPC: 4 cumulative IPC: 4 (Simulation time: 00 hr 06 min 04 sec)
Heartbeat CPU 0 instructions: 110000004 cycles: 28620912 heartbeat IPC: 4 cumulative IPC: 4 (Simulation time: 00 hr 07 min 07 sec)
Heartbeat CPU 0 instructions: 120000003 cycles: 31120911 heartbeat IPC: 4 cumulative IPC: 4 (Simulation time: 00 hr 08 min 19 sec)
Heartbeat CPU 0 instructions: 130000002 cycles: 33620910 heartbeat IPC: 4 cumulative IPC: 4 (Simulation time: 00 hr 09 min 38 sec)
Heartbeat CPU 0 instructions: 140000004 cycles: 36121719 heartbeat IPC: 3.999 cumulative IPC: 4 (Simulation time: 00 hr 10 min 57 sec)
Heartbeat CPU 0 instructions: 150000000 cycles: 38621719 heartbeat IPC: 4 cumulative IPC: 4 (Simulation time: 00 hr 12 min 13 sec)
Heartbeat CPU 0 instructions: 160000001 cycles: 41121720 heartbeat IPC: 4 cumulative IPC: 4 (Simulation time: 00 hr 13 min 28 sec)
Heartbeat CPU 0 instructions: 170000004 cycles: 43621720 heartbeat IPC: 4 cumulative IPC: 4 (Simulation time: 00 hr 14 min 43 sec)
Heartbeat CPU 0 instructions: 180000000 cycles: 46122026 heartbeat IPC: 4 cumulative IPC: 4 (Simulation time: 00 hr 15 min 52 sec)
Heartbeat CPU 0 instructions: 190000004 cycles: 48622027 heartbeat IPC: 4 cumulative IPC: 4 (Simulation time: 00 hr 17 min 00 sec)
Heartbeat CPU 0 instructions: 200000002 cycles: 51122027 heartbeat IPC: 4 cumulative IPC: 4 (Simulation time: 00 hr 18 min 10 sec)
Heartbeat CPU 0 instructions: 210000003 cycles: 53622028 heartbeat IPC: 4 cumulative IPC: 4 (Simulation time: 00 hr 19 min 18 sec)
Heartbeat CPU 0 instructions: 220000001 cycles: 56122027 heartbeat IPC: 4 cumulative IPC: 4 (Simulation time: 00 hr 20 min 25 sec)
Heartbeat CPU 0 instructions: 230000002 cycles: 58622333 heartbeat IPC: 4 cumulative IPC: 4 (Simulation time: 00 hr 21 min 35 sec)
Heartbeat CPU 0 instructions: 240000003 cycles: 61122333 heartbeat IPC: 4 cumulative IPC: 4 (Simulation time: 00 hr 22 min 49 sec)
Heartbeat CPU 0 instructions: 250000004 cycles: 63622334 heartbeat IPC: 4 cumulative IPC: 4 (Simulation time: 00 hr 24 min 01 sec)
Heartbeat CPU 0 instructions: 260000000 cycles: 66122334 heartbeat IPC: 4 cumulative IPC: 4 (Simulation time: 00 hr 25 min 13 sec)
Heartbeat CPU 0 instructions: 270000003 cycles: 68623163 heartbeat IPC: 3.999 cumulative IPC: 4 (Simulation time: 00 hr 26 min 29 sec)
Heartbeat CPU 0 instructions: 280000001 cycles: 71123162 heartbeat IPC: 4 cumulative IPC: 4 (Simulation time: 00 hr 27 min 44 sec)
Heartbeat CPU 0 instructions: 290000000 cycles: 73623162 heartbeat IPC: 4 cumulative IPC: 4 (Simulation time: 00 hr 28 min 58 sec)
Heartbeat CPU 0 instructions: 300000001 cycles: 76123163 heartbeat IPC: 4 cumulative IPC: 4 (Simulation time: 00 hr 30 min 13 sec)
Heartbeat CPU 0 instructions: 310000000 cycles: 78623163 heartbeat IPC: 4 cumulative IPC: 4 (Simulation time: 00 hr 31 min 30 sec)
Heartbeat CPU 0 instructions: 320000000 cycles: 81123470 heartbeat IPC: 4 cumulative IPC: 4 (Simulation time: 00 hr 32 min 41 sec)
Heartbeat CPU 0 instructions: 330000000 cycles: 83623468 heartbeat IPC: 4 cumulative IPC: 4 (Simulation time: 00 hr 33 min 52 sec)
Heartbeat CPU 0 instructions: 340000002 cycles: 86123469 heartbeat IPC: 4 cumulative IPC: 4 (Simulation time: 00 hr 35 min 01 sec)
Heartbeat CPU 0 instructions: 350000003 cycles: 88623470 heartbeat IPC: 4 cumulative IPC: 4 (Simulation time: 00 hr 36 min 10 sec)
Heartbeat CPU 0 instructions: 360000001 cycles: 91123777 heartbeat IPC: 4 cumulative IPC: 4 (Simulation time: 00 hr 37 min 21 sec)
Heartbeat CPU 0 instructions: 370000002 cycles: 93623778 heartbeat IPC: 4 cumulative IPC: 4 (Simulation time: 00 hr 38 min 30 sec)
Heartbeat CPU 0 instructions: 380000002 cycles: 96123777 heartbeat IPC: 4 cumulative IPC: 4 (Simulation time: 00 hr 39 min 46 sec)
Heartbeat CPU 0 instructions: 390000004 cycles: 98623778 heartbeat IPC: 4 cumulative IPC: 4 (Simulation time: 00 hr 40 min 58 sec)
Heartbeat CPU 0 instructions: 400000000 cycles: 101123778 heartbeat IPC: 4 cumulative IPC: 4 (Simulation time: 00 hr 42 min 10 sec)
Heartbeat CPU 0 instructions: 410000003 cycles: 103624084 heartbeat IPC: 4 cumulative IPC: 4 (Simulation time: 00 hr 43 min 20 sec)
Heartbeat CPU 0 instructions: 420000003 cycles: 115277813 heartbeat IPC: 0.8581 cumulative IPC: 3.64 (Simulation time: 00 hr 46 min 21 sec)
Heartbeat CPU 0 instructions: 430000003 cycles: 143697131 heartbeat IPC: 0.3519 cumulative IPC: 2.921 (Simulation time: 00 hr 52 min 36 sec)
Heartbeat CPU 0 instructions: 440000000 cycles: 171441532 heartbeat IPC: 0.3604 cumulative IPC: 2.471 (Simulation time: 00 hr 58 min 39 sec)
Heartbeat CPU 0 instructions: 450000000 cycles: 199184905 heartbeat IPC: 0.3604 cumulative IPC: 2.156 (Simulation time: 01 hr 04 min 48 sec)
Heartbeat CPU 0 instructions: 460000002 cycles: 226903522 heartbeat IPC: 0.3608 cumulative IPC: 1.922 (Simulation time: 01 hr 14 min 45 sec)
Heartbeat CPU 0 instructions: 470000003 cycles: 254680969 heartbeat IPC: 0.36 cumulative IPC: 1.742 (Simulation time: 01 hr 25 min 34 sec)
Heartbeat CPU 0 instructions: 480000004 cycles: 282414258 heartbeat IPC: 0.3606 cumulative IPC: 1.6 (Simulation time: 01 hr 34 min 53 sec)
Heartbeat CPU 0 instructions: 490000000 cycles: 310158695 heartbeat IPC: 0.3604 cumulative IPC: 1.484 (Simulation time: 01 hr 47 min 42 sec)
Heartbeat CPU 0 instructions: 500000000 cycles: 337920544 heartbeat IPC: 0.3602 cumulative IPC: 1.388 (Simulation time: 01 hr 59 min 38 sec)
Heartbeat CPU 0 instructions: 510000002 cycles: 365598328 heartbeat IPC: 0.3613 cumulative IPC: 1.307 (Simulation time: 02 hr 10 min 04 sec)
Heartbeat CPU 0 instructions: 520000003 cycles: 393344883 heartbeat IPC: 0.3604 cumulative IPC: 1.238 (Simulation time: 02 hr 22 min 29 sec)
Heartbeat CPU 0 instructions: 530000004 cycles: 420907966 heartbeat IPC: 0.3628 cumulative IPC: 1.179 (Simulation time: 02 hr 30 min 01 sec)
Heartbeat CPU 0 instructions: 540000000 cycles: 448613556 heartbeat IPC: 0.3609 cumulative IPC: 1.126 (Simulation time: 02 hr 36 min 10 sec)
Heartbeat CPU 0 instructions: 550000000 cycles: 476306635 heartbeat IPC: 0.3611 cumulative IPC: 1.081 (Simulation time: 02 hr 42 min 29 sec)
Heartbeat CPU 0 instructions: 560000002 cycles: 503942856 heartbeat IPC: 0.3618 cumulative IPC: 1.04 (Simulation time: 02 hr 49 min 02 sec)
Heartbeat CPU 0 instructions: 570000002 cycles: 531776937 heartbeat IPC: 0.3593 cumulative IPC: 1.004 (Simulation time: 02 hr 55 min 40 sec)
Heartbeat CPU 0 instructions: 580000000 cycles: 559519251 heartbeat IPC: 0.3605 cumulative IPC: 0.9709 (Simulation time: 03 hr 02 min 00 sec)
Heartbeat CPU 0 instructions: 590000004 cycles: 587215547 heartbeat IPC: 0.3611 cumulative IPC: 0.9414 (Simulation time: 03 hr 09 min 27 sec)
*** Reached end of trace: (0, "traces/l1l2l3cache.champsimtrace")
Heartbeat CPU 0 instructions: 600000001 cycles: 614975641 heartbeat IPC: 0.3602 cumulative IPC: 0.9146 (Simulation time: 03 hr 15 min 47 sec)
Heartbeat CPU 0 instructions: 610000001 cycles: 625037147 heartbeat IPC: 0.9939 cumulative IPC: 0.9159 (Simulation time: 03 hr 18 min 26 sec)
Heartbeat CPU 0 instructions: 620000004 cycles: 640559104 heartbeat IPC: 0.6442 cumulative IPC: 0.9092 (Simulation time: 03 hr 22 min 06 sec)
Heartbeat CPU 0 instructions: 630000000 cycles: 656022112 heartbeat IPC: 0.6467 cumulative IPC: 0.9029 (Simulation time: 03 hr 25 min 54 sec)
Heartbeat CPU 0 instructions: 640000000 cycles: 663196897 heartbeat IPC: 1.394 cumulative IPC: 0.9083 (Simulation time: 03 hr 30 min 03 sec)
Heartbeat CPU 0 instructions: 650000001 cycles: 665697206 heartbeat IPC: 4 cumulative IPC: 0.9201 (Simulation time: 03 hr 32 min 53 sec)
Simulation finished CPU 0 instructions: 600000003 cycles: 652076606 cumulative IPC: 0.9201 (Simulation time: 03 hr 32 min 53 sec)
Simulation complete CPU 0 instructions: 600000003 cycles: 652076606 cumulative IPC: 0.9201 (Simulation time: 03 hr 32 min 53 sec)

ChampSim completed all CPUs

=== Simulation ===
CPU 0 runs traces/l1l2l3cache.champsimtrace
Region of Interest Statistics

CPU 0 cumulative IPC: 0.9201 instructions: 600000003 cycles: 652076606
CPU 0 Branch Prediction Accuracy: 99.99% MPKI: 0.01094 Average ROB Occupancy at Mispredict: 169.9
Branch type MPKI
BRANCH_DIRECT_JUMP: 8.5e-05
BRANCH_INDIRECT: 0.000237
BRANCH_CONDITIONAL: 0.0105
BRANCH_DIRECT_CALL: 5e-06
BRANCH_INDIRECT_CALL: 4.67e-05
BRANCH_RETURN: 3.67e-05

LLC TOTAL        ACCESS:    5043905 HIT:     930804 MISS:    4113101
LLC LOAD         ACCESS:    1954447 HIT:     183332 MISS:    1771115
LLC RFO          ACCESS:     561708 HIT:        867 MISS:     560841
LLC PREFETCH     ACCESS:    1954447 HIT:     181599 MISS:    1772848
LLC WRITE        ACCESS:     562058 HIT:     561995 MISS:         63
LLC TRANSLATION  ACCESS:      11245 HIT:       3011 MISS:       8234
LLC PREFETCH REQUESTED:    1954447 ISSUED:    1954447 USEFUL:     114404 USELESS:    1656875
LLC AVERAGE MISS LATENCY: 1024 cycles
cpu0_DTLB TOTAL        ACCESS:  124379206 HIT:  122364260 MISS:    2014946
cpu0_DTLB LOAD         ACCESS:  124379206 HIT:  122364260 MISS:    2014946
cpu0_DTLB RFO          ACCESS:          0 HIT:          0 MISS:          0
cpu0_DTLB PREFETCH     ACCESS:          0 HIT:          0 MISS:          0
cpu0_DTLB WRITE        ACCESS:          0 HIT:          0 MISS:          0
cpu0_DTLB TRANSLATION  ACCESS:          0 HIT:          0 MISS:          0
cpu0_DTLB PREFETCH REQUESTED:          0 ISSUED:          0 USEFUL:          0 USELESS:          0
cpu0_DTLB AVERAGE MISS LATENCY: 20.68 cycles
cpu0_ITLB TOTAL        ACCESS:       5084 HIT:       4843 MISS:        241
cpu0_ITLB LOAD         ACCESS:       5084 HIT:       4843 MISS:        241
cpu0_ITLB RFO          ACCESS:          0 HIT:          0 MISS:          0
cpu0_ITLB PREFETCH     ACCESS:          0 HIT:          0 MISS:          0
cpu0_ITLB WRITE        ACCESS:          0 HIT:          0 MISS:          0
cpu0_ITLB TRANSLATION  ACCESS:          0 HIT:          0 MISS:          0
cpu0_ITLB PREFETCH REQUESTED:          0 ISSUED:          0 USEFUL:          0 USELESS:          0
cpu0_ITLB AVERAGE MISS LATENCY: 247.8 cycles
cpu0_L1D TOTAL        ACCESS:  172245135 HIT:  160641063 MISS:   11604072
cpu0_L1D LOAD         ACCESS:   63924299 HIT:   61880147 MISS:    2044152
cpu0_L1D RFO          ACCESS:          0 HIT:          0 MISS:          0
cpu0_L1D PREFETCH     ACCESS:          0 HIT:          0 MISS:          0
cpu0_L1D WRITE        ACCESS:  107015341 HIT:   98201672 MISS:    8813669
cpu0_L1D TRANSLATION  ACCESS:    1305495 HIT:     559244 MISS:     746251
cpu0_L1D PREFETCH REQUESTED:          0 ISSUED:          0 USEFUL:          0 USELESS:          0
cpu0_L1D AVERAGE MISS LATENCY: 191.4 cycles
cpu0_L1I TOTAL        ACCESS:       5869 HIT:       3317 MISS:       2552
cpu0_L1I LOAD         ACCESS:       5869 HIT:       3317 MISS:       2552
cpu0_L1I RFO          ACCESS:          0 HIT:          0 MISS:          0
cpu0_L1I PREFETCH     ACCESS:          0 HIT:          0 MISS:          0
cpu0_L1I WRITE        ACCESS:          0 HIT:          0 MISS:          0
cpu0_L1I TRANSLATION  ACCESS:          0 HIT:          0 MISS:          0
cpu0_L1I PREFETCH REQUESTED:          0 ISSUED:          0 USEFUL:          0 USELESS:          0
cpu0_L1I AVERAGE MISS LATENCY: 241.6 cycles
cpu0_L2C TOTAL        ACCESS:    3905914 HIT:    1378499 MISS:    2527415
cpu0_L2C LOAD         ACCESS:    2009355 HIT:      54908 MISS:    1954447
cpu0_L2C RFO          ACCESS:     574557 HIT:      12849 MISS:     561708
cpu0_L2C PREFETCH     ACCESS:          0 HIT:          0 MISS:          0
cpu0_L2C WRITE        ACCESS:     575771 HIT:     575756 MISS:         15
cpu0_L2C TRANSLATION  ACCESS:     746231 HIT:     734986 MISS:      11245
cpu0_L2C PREFETCH REQUESTED:          0 ISSUED:          0 USEFUL:          0 USELESS:          0
cpu0_L2C AVERAGE MISS LATENCY: 901.8 cycles
cpu0_STLB TOTAL        ACCESS:    1982606 HIT:     677119 MISS:    1305487
cpu0_STLB LOAD         ACCESS:    1982606 HIT:     677119 MISS:    1305487
cpu0_STLB RFO          ACCESS:          0 HIT:          0 MISS:          0
cpu0_STLB PREFETCH     ACCESS:          0 HIT:          0 MISS:          0
cpu0_STLB WRITE        ACCESS:          0 HIT:          0 MISS:          0
cpu0_STLB TRANSLATION  ACCESS:          0 HIT:          0 MISS:          0
cpu0_STLB PREFETCH REQUESTED:          0 ISSUED:          0 USEFUL:          0 USELESS:          0
cpu0_STLB AVERAGE MISS LATENCY: 18.88 cycles

DRAM Statistics

Channel 0 RQ ROW_BUFFER_HIT:     115735
  ROW_BUFFER_MISS:    3993036
 AVG DBUS CONGESTED CYCLE: 3.973
WQ ROW_BUFFER_HIT: Channel 0 
  ROW_BUFFER_MISS:     167256
  FULL:     394692
