WARNING: physical memory size is smaller than virtual memory size.

*** ChampSim Multicore Out-of-Order Simulator ***
Warmup Instructions: 50000000
Simulation Instructions: 600000000
Number of CPUs: 1
Page size: 4096

CPU 0 Tage branch predictor
Off-chip DRAM Size: 4 GiB Channels: 1 Width: 64-bit Data Race: 3200 MT/s
Heartbeat CPU 0 instructions: 10000000 cycles: 2565785 heartbeat IPC: 3.897 cumulative IPC: 3.897 (Simulation time: 00 hr 00 min 40 sec)
Heartbeat CPU 0 instructions: 20000000 cycles: 5131274 heartbeat IPC: 3.898 cumulative IPC: 3.898 (Simulation time: 00 hr 01 min 25 sec)
Heartbeat CPU 0 instructions: 30000000 cycles: 7631274 heartbeat IPC: 4 cumulative IPC: 3.931 (Simulation time: 00 hr 02 min 04 sec)
Heartbeat CPU 0 instructions: 40000000 cycles: 10131274 heartbeat IPC: 4 cumulative IPC: 3.948 (Simulation time: 00 hr 02 min 43 sec)
Heartbeat CPU 0 instructions: 50000000 cycles: 12631274 heartbeat IPC: 4 cumulative IPC: 3.958 (Simulation time: 00 hr 03 min 21 sec)
Warmup finished CPU 0 instructions: 50000000 cycles: 12631275 cumulative IPC: 3.958 (Simulation time: 00 hr 03 min 21 sec)
Warmup complete CPU 0 instructions: 50000000 cycles: 12631275 cumulative IPC: 3.958 (Simulation time: 00 hr 03 min 21 sec)
Heartbeat CPU 0 instructions: 60000002 cycles: 15446860 heartbeat IPC: 3.552 cumulative IPC: 3.552 (Simulation time: 00 hr 04 min 10 sec)
Heartbeat CPU 0 instructions: 70000001 cycles: 18261922 heartbeat IPC: 3.552 cumulative IPC: 3.552 (Simulation time: 00 hr 04 min 53 sec)
Heartbeat CPU 0 instructions: 80000004 cycles: 21079021 heartbeat IPC: 3.55 cumulative IPC: 3.551 (Simulation time: 00 hr 05 min 39 sec)
Heartbeat CPU 0 instructions: 90000000 cycles: 23893913 heartbeat IPC: 3.553 cumulative IPC: 3.552 (Simulation time: 00 hr 06 min 21 sec)
Heartbeat CPU 0 instructions: 100000003 cycles: 26710910 heartbeat IPC: 3.55 cumulative IPC: 3.551 (Simulation time: 00 hr 07 min 04 sec)
Heartbeat CPU 0 instructions: 110000000 cycles: 29526056 heartbeat IPC: 3.552 cumulative IPC: 3.551 (Simulation time: 00 hr 07 min 49 sec)
Heartbeat CPU 0 instructions: 120000002 cycles: 32340652 heartbeat IPC: 3.553 cumulative IPC: 3.552 (Simulation time: 00 hr 08 min 31 sec)
Heartbeat CPU 0 instructions: 130000001 cycles: 35155871 heartbeat IPC: 3.552 cumulative IPC: 3.552 (Simulation time: 00 hr 09 min 12 sec)
Heartbeat CPU 0 instructions: 140000002 cycles: 37970732 heartbeat IPC: 3.553 cumulative IPC: 3.552 (Simulation time: 00 hr 09 min 54 sec)
Heartbeat CPU 0 instructions: 150000000 cycles: 40786093 heartbeat IPC: 3.552 cumulative IPC: 3.552 (Simulation time: 00 hr 10 min 36 sec)
Heartbeat CPU 0 instructions: 160000002 cycles: 43603215 heartbeat IPC: 3.55 cumulative IPC: 3.552 (Simulation time: 00 hr 11 min 19 sec)
Heartbeat CPU 0 instructions: 170000000 cycles: 46419904 heartbeat IPC: 3.55 cumulative IPC: 3.551 (Simulation time: 00 hr 12 min 01 sec)
Heartbeat CPU 0 instructions: 180000003 cycles: 49235188 heartbeat IPC: 3.552 cumulative IPC: 3.552 (Simulation time: 00 hr 12 min 43 sec)
Heartbeat CPU 0 instructions: 190000001 cycles: 52051321 heartbeat IPC: 3.551 cumulative IPC: 3.551 (Simulation time: 00 hr 13 min 25 sec)
Heartbeat CPU 0 instructions: 200000001 cycles: 54867266 heartbeat IPC: 3.551 cumulative IPC: 3.551 (Simulation time: 00 hr 14 min 09 sec)
Heartbeat CPU 0 instructions: 210000004 cycles: 57683189 heartbeat IPC: 3.551 cumulative IPC: 3.551 (Simulation time: 00 hr 14 min 51 sec)
Heartbeat CPU 0 instructions: 220000002 cycles: 60498850 heartbeat IPC: 3.552 cumulative IPC: 3.551 (Simulation time: 00 hr 15 min 33 sec)
Heartbeat CPU 0 instructions: 230000001 cycles: 63533079 heartbeat IPC: 3.296 cumulative IPC: 3.536 (Simulation time: 00 hr 16 min 20 sec)
Heartbeat CPU 0 instructions: 240000003 cycles: 66161742 heartbeat IPC: 3.804 cumulative IPC: 3.549 (Simulation time: 00 hr 17 min 05 sec)
Heartbeat CPU 0 instructions: 250000003 cycles: 68977183 heartbeat IPC: 3.552 cumulative IPC: 3.55 (Simulation time: 00 hr 17 min 47 sec)
Heartbeat CPU 0 instructions: 260000002 cycles: 71791352 heartbeat IPC: 3.553 cumulative IPC: 3.55 (Simulation time: 00 hr 18 min 28 sec)
Heartbeat CPU 0 instructions: 270000004 cycles: 74606241 heartbeat IPC: 3.553 cumulative IPC: 3.55 (Simulation time: 00 hr 19 min 09 sec)
Heartbeat CPU 0 instructions: 280000001 cycles: 77422671 heartbeat IPC: 3.551 cumulative IPC: 3.55 (Simulation time: 00 hr 19 min 51 sec)
Heartbeat CPU 0 instructions: 290000002 cycles: 80238163 heartbeat IPC: 3.552 cumulative IPC: 3.55 (Simulation time: 00 hr 20 min 32 sec)
Heartbeat CPU 0 instructions: 300000004 cycles: 83054693 heartbeat IPC: 3.55 cumulative IPC: 3.55 (Simulation time: 00 hr 21 min 14 sec)
Heartbeat CPU 0 instructions: 310000002 cycles: 85871342 heartbeat IPC: 3.55 cumulative IPC: 3.55 (Simulation time: 00 hr 21 min 55 sec)
Heartbeat CPU 0 instructions: 320000000 cycles: 88687806 heartbeat IPC: 3.551 cumulative IPC: 3.55 (Simulation time: 00 hr 22 min 38 sec)
Heartbeat CPU 0 instructions: 330000004 cycles: 91503881 heartbeat IPC: 3.551 cumulative IPC: 3.55 (Simulation time: 00 hr 23 min 21 sec)
Heartbeat CPU 0 instructions: 340000000 cycles: 94320727 heartbeat IPC: 3.55 cumulative IPC: 3.55 (Simulation time: 00 hr 24 min 04 sec)
Heartbeat CPU 0 instructions: 350000003 cycles: 97136768 heartbeat IPC: 3.551 cumulative IPC: 3.55 (Simulation time: 00 hr 24 min 46 sec)
Heartbeat CPU 0 instructions: 360000003 cycles: 99953040 heartbeat IPC: 3.551 cumulative IPC: 3.55 (Simulation time: 00 hr 25 min 28 sec)
Heartbeat CPU 0 instructions: 370000003 cycles: 102769943 heartbeat IPC: 3.55 cumulative IPC: 3.55 (Simulation time: 00 hr 26 min 10 sec)
Heartbeat CPU 0 instructions: 380000003 cycles: 105584930 heartbeat IPC: 3.552 cumulative IPC: 3.55 (Simulation time: 00 hr 26 min 53 sec)
Heartbeat CPU 0 instructions: 390000000 cycles: 108400231 heartbeat IPC: 3.552 cumulative IPC: 3.55 (Simulation time: 00 hr 27 min 36 sec)
Heartbeat CPU 0 instructions: 400000002 cycles: 111217302 heartbeat IPC: 3.55 cumulative IPC: 3.55 (Simulation time: 00 hr 28 min 19 sec)
Heartbeat CPU 0 instructions: 410000004 cycles: 114032886 heartbeat IPC: 3.552 cumulative IPC: 3.55 (Simulation time: 00 hr 29 min 02 sec)
Heartbeat CPU 0 instructions: 420000001 cycles: 116850141 heartbeat IPC: 3.55 cumulative IPC: 3.55 (Simulation time: 00 hr 29 min 43 sec)
Heartbeat CPU 0 instructions: 430000001 cycles: 119665288 heartbeat IPC: 3.552 cumulative IPC: 3.55 (Simulation time: 00 hr 30 min 26 sec)
Heartbeat CPU 0 instructions: 440000002 cycles: 122481182 heartbeat IPC: 3.551 cumulative IPC: 3.55 (Simulation time: 00 hr 31 min 07 sec)
Heartbeat CPU 0 instructions: 450000001 cycles: 125116827 heartbeat IPC: 3.794 cumulative IPC: 3.556 (Simulation time: 00 hr 31 min 53 sec)
Heartbeat CPU 0 instructions: 460000002 cycles: 127740063 heartbeat IPC: 3.812 cumulative IPC: 3.562 (Simulation time: 00 hr 32 min 38 sec)
Heartbeat CPU 0 instructions: 470000004 cycles: 130556791 heartbeat IPC: 3.55 cumulative IPC: 3.562 (Simulation time: 00 hr 33 min 20 sec)
Heartbeat CPU 0 instructions: 480000000 cycles: 133372876 heartbeat IPC: 3.551 cumulative IPC: 3.561 (Simulation time: 00 hr 34 min 03 sec)
Heartbeat CPU 0 instructions: 490000000 cycles: 136189537 heartbeat IPC: 3.55 cumulative IPC: 3.561 (Simulation time: 00 hr 34 min 45 sec)
Heartbeat CPU 0 instructions: 500000002 cycles: 139005046 heartbeat IPC: 3.552 cumulative IPC: 3.561 (Simulation time: 00 hr 35 min 28 sec)
Heartbeat CPU 0 instructions: 510000001 cycles: 141820544 heartbeat IPC: 3.552 cumulative IPC: 3.561 (Simulation time: 00 hr 36 min 10 sec)
Heartbeat CPU 0 instructions: 520000003 cycles: 144636666 heartbeat IPC: 3.551 cumulative IPC: 3.56 (Simulation time: 00 hr 36 min 52 sec)
Heartbeat CPU 0 instructions: 530000002 cycles: 147452692 heartbeat IPC: 3.551 cumulative IPC: 3.56 (Simulation time: 00 hr 37 min 33 sec)
Heartbeat CPU 0 instructions: 540000000 cycles: 150268475 heartbeat IPC: 3.551 cumulative IPC: 3.56 (Simulation time: 00 hr 38 min 18 sec)
Heartbeat CPU 0 instructions: 550000000 cycles: 153083380 heartbeat IPC: 3.553 cumulative IPC: 3.56 (Simulation time: 00 hr 39 min 02 sec)
Heartbeat CPU 0 instructions: 560000001 cycles: 155899287 heartbeat IPC: 3.551 cumulative IPC: 3.56 (Simulation time: 00 hr 39 min 44 sec)
Heartbeat CPU 0 instructions: 570000001 cycles: 158716246 heartbeat IPC: 3.55 cumulative IPC: 3.56 (Simulation time: 00 hr 40 min 28 sec)
Heartbeat CPU 0 instructions: 580000002 cycles: 161532957 heartbeat IPC: 3.55 cumulative IPC: 3.559 (Simulation time: 00 hr 41 min 10 sec)
Heartbeat CPU 0 instructions: 590000003 cycles: 164348096 heartbeat IPC: 3.552 cumulative IPC: 3.559 (Simulation time: 00 hr 41 min 52 sec)
*** Reached end of trace: (0, "traces/l1l2cache.champsimtrace")
Heartbeat CPU 0 instructions: 600000001 cycles: 167165102 heartbeat IPC: 3.55 cumulative IPC: 3.559 (Simulation time: 00 hr 42 min 37 sec)
Heartbeat CPU 0 instructions: 610000001 cycles: 176597249 heartbeat IPC: 1.06 cumulative IPC: 3.415 (Simulation time: 00 hr 44 min 13 sec)
Heartbeat CPU 0 instructions: 620000004 cycles: 179232232 heartbeat IPC: 3.795 cumulative IPC: 3.421 (Simulation time: 00 hr 45 min 00 sec)
Heartbeat CPU 0 instructions: 630000004 cycles: 182047002 heartbeat IPC: 3.553 cumulative IPC: 3.424 (Simulation time: 00 hr 45 min 41 sec)
Heartbeat CPU 0 instructions: 640000000 cycles: 184863019 heartbeat IPC: 3.551 cumulative IPC: 3.426 (Simulation time: 00 hr 46 min 24 sec)
Heartbeat CPU 0 instructions: 650000004 cycles: 187678406 heartbeat IPC: 3.552 cumulative IPC: 3.428 (Simulation time: 00 hr 47 min 08 sec)
Simulation finished CPU 0 instructions: 600000004 cycles: 175047132 cumulative IPC: 3.428 (Simulation time: 00 hr 47 min 08 sec)
Simulation complete CPU 0 instructions: 600000004 cycles: 175047132 cumulative IPC: 3.428 (Simulation time: 00 hr 47 min 08 sec)

ChampSim completed all CPUs

=== Simulation ===
CPU 0 runs traces/l1l2cache.champsimtrace
Region of Interest Statistics

CPU 0 cumulative IPC: 3.428 instructions: 600000004 cycles: 175047132
CPU 0 Branch Prediction Accuracy: 97.76% MPKI: 1.901 Average ROB Occupancy at Mispredict: 151.3
Branch type MPKI
BRANCH_DIRECT_JUMP: 9.5e-05
BRANCH_INDIRECT: 0.000282
BRANCH_CONDITIONAL: 1.9
BRANCH_DIRECT_CALL: 3.33e-06
BRANCH_INDIRECT_CALL: 4.83e-05
BRANCH_RETURN: 3.33e-05

LLC TOTAL        ACCESS:     408888 HIT:     361989 MISS:      46899
LLC LOAD         ACCESS:      59445 HIT:      51218 MISS:       8227
LLC RFO          ACCESS:      99913 HIT:      65684 MISS:      34229
LLC PREFETCH     ACCESS:     149223 HIT:     144787 MISS:       4436
LLC WRITE        ACCESS:     100302 HIT:     100300 MISS:          2
LLC TRANSLATION  ACCESS:          5 HIT:          0 MISS:          5
LLC PREFETCH REQUESTED:     149223 ISSUED:     149223 USEFUL:       2261 USELESS:        122
LLC AVERAGE MISS LATENCY: 922.9 cycles
cpu0_DTLB TOTAL        ACCESS:   78722503 HIT:   78711678 MISS:      10825
cpu0_DTLB LOAD         ACCESS:   78722503 HIT:   78711678 MISS:      10825
cpu0_DTLB RFO          ACCESS:          0 HIT:          0 MISS:          0
cpu0_DTLB PREFETCH     ACCESS:          0 HIT:          0 MISS:          0
cpu0_DTLB WRITE        ACCESS:          0 HIT:          0 MISS:          0
cpu0_DTLB TRANSLATION  ACCESS:          0 HIT:          0 MISS:          0
cpu0_DTLB PREFETCH REQUESTED:          0 ISSUED:          0 USEFUL:          0 USELESS:          0
cpu0_DTLB AVERAGE MISS LATENCY: 5.872 cycles
cpu0_ITLB TOTAL        ACCESS:       5652 HIT:       5412 MISS:        240
cpu0_ITLB LOAD         ACCESS:       5652 HIT:       5412 MISS:        240
cpu0_ITLB RFO          ACCESS:          0 HIT:          0 MISS:          0
cpu0_ITLB PREFETCH     ACCESS:          0 HIT:          0 MISS:          0
cpu0_ITLB WRITE        ACCESS:          0 HIT:          0 MISS:          0
cpu0_ITLB TRANSLATION  ACCESS:          0 HIT:          0 MISS:          0
cpu0_ITLB PREFETCH REQUESTED:          0 ISSUED:          0 USEFUL:          0 USELESS:          0
cpu0_ITLB AVERAGE MISS LATENCY: 5.767 cycles
cpu0_L1D TOTAL        ACCESS:   97778936 HIT:   96389586 MISS:    1389350
cpu0_L1D LOAD         ACCESS:   38617065 HIT:   38268141 MISS:     348924
cpu0_L1D RFO          ACCESS:          0 HIT:          0 MISS:          0
cpu0_L1D PREFETCH     ACCESS:          0 HIT:          0 MISS:          0
cpu0_L1D WRITE        ACCESS:   59161613 HIT:   58121192 MISS:    1040421
cpu0_L1D TRANSLATION  ACCESS:        258 HIT:        253 MISS:          5
cpu0_L1D PREFETCH REQUESTED:          0 ISSUED:          0 USEFUL:          0 USELESS:          0
cpu0_L1D AVERAGE MISS LATENCY: 28.14 cycles
cpu0_L1I TOTAL        ACCESS:       6443 HIT:       3950 MISS:       2493
cpu0_L1I LOAD         ACCESS:       6443 HIT:       3950 MISS:       2493
cpu0_L1I RFO          ACCESS:          0 HIT:          0 MISS:          0
cpu0_L1I PREFETCH     ACCESS:          0 HIT:          0 MISS:          0
cpu0_L1I WRITE        ACCESS:          0 HIT:          0 MISS:          0
cpu0_L1I TRANSLATION  ACCESS:          0 HIT:          0 MISS:          0
cpu0_L1I PREFETCH REQUESTED:          0 ISSUED:          0 USEFUL:          0 USELESS:          0
cpu0_L1I AVERAGE MISS LATENCY: 613.4 cycles
cpu0_L2C TOTAL        ACCESS:     265732 HIT:     106345 MISS:     159387
cpu0_L2C LOAD         ACCESS:      63734 HIT:       4289 MISS:      59445
cpu0_L2C RFO          ACCESS:     100732 HIT:        819 MISS:      99913
cpu0_L2C PREFETCH     ACCESS:          0 HIT:          0 MISS:          0
cpu0_L2C WRITE        ACCESS:     101261 HIT:     101237 MISS:         24
cpu0_L2C TRANSLATION  ACCESS:          5 HIT:          0 MISS:          5
cpu0_L2C PREFETCH REQUESTED:          0 ISSUED:          0 USEFUL:          0 USELESS:          0
cpu0_L2C AVERAGE MISS LATENCY: 276 cycles
cpu0_STLB TOTAL        ACCESS:       3912 HIT:       3655 MISS:        257
cpu0_STLB LOAD         ACCESS:       3912 HIT:       3655 MISS:        257
cpu0_STLB RFO          ACCESS:          0 HIT:          0 MISS:          0
cpu0_STLB PREFETCH     ACCESS:          0 HIT:          0 MISS:          0
cpu0_STLB WRITE        ACCESS:          0 HIT:          0 MISS:          0
cpu0_STLB TRANSLATION  ACCESS:          0 HIT:          0 MISS:          0
cpu0_STLB PREFETCH REQUESTED:          0 ISSUED:          0 USEFUL:          0 USELESS:          0
cpu0_STLB AVERAGE MISS LATENCY: 218.5 cycles

DRAM Statistics

Channel 0 RQ ROW_BUFFER_HIT:      17859
  ROW_BUFFER_MISS:      26307
 AVG DBUS CONGESTED CYCLE: 3.985
WQ ROW_BUFFER_HIT: Channel 0 
  ROW_BUFFER_MISS:       3458
  FULL:      26112
