WARNING: physical memory size is smaller than virtual memory size.

*** ChampSim Multicore Out-of-Order Simulator ***
Warmup Instructions: 50000000
Simulation Instructions: 600000000
Number of CPUs: 1
Page size: 4096

Off-chip DRAM Size: 4 GiB Channels: 1 Width: 64-bit Data Race: 3200 MT/s
Heartbeat CPU 0 instructions: 10000000 cycles: 2565785 heartbeat IPC: 3.897 cumulative IPC: 3.897 (Simulation time: 00 hr 00 min 33 sec)
Heartbeat CPU 0 instructions: 20000000 cycles: 5131274 heartbeat IPC: 3.898 cumulative IPC: 3.898 (Simulation time: 00 hr 01 min 09 sec)
Heartbeat CPU 0 instructions: 30000000 cycles: 7631274 heartbeat IPC: 4 cumulative IPC: 3.931 (Simulation time: 00 hr 01 min 40 sec)
Heartbeat CPU 0 instructions: 40000000 cycles: 10131274 heartbeat IPC: 4 cumulative IPC: 3.948 (Simulation time: 00 hr 02 min 16 sec)
Heartbeat CPU 0 instructions: 50000000 cycles: 12631274 heartbeat IPC: 4 cumulative IPC: 3.958 (Simulation time: 00 hr 02 min 53 sec)
Warmup finished CPU 0 instructions: 50000000 cycles: 12631275 cumulative IPC: 3.958 (Simulation time: 00 hr 02 min 53 sec)
Warmup complete CPU 0 instructions: 50000000 cycles: 12631275 cumulative IPC: 3.958 (Simulation time: 00 hr 02 min 53 sec)
Heartbeat CPU 0 instructions: 60000000 cycles: 16058852 heartbeat IPC: 2.918 cumulative IPC: 2.918 (Simulation time: 00 hr 03 min 37 sec)
Heartbeat CPU 0 instructions: 70000000 cycles: 19488286 heartbeat IPC: 2.916 cumulative IPC: 2.917 (Simulation time: 00 hr 04 min 21 sec)
Heartbeat CPU 0 instructions: 80000004 cycles: 22914704 heartbeat IPC: 2.919 cumulative IPC: 2.917 (Simulation time: 00 hr 05 min 02 sec)
Heartbeat CPU 0 instructions: 90000000 cycles: 26342392 heartbeat IPC: 2.917 cumulative IPC: 2.917 (Simulation time: 00 hr 05 min 41 sec)
Heartbeat CPU 0 instructions: 100000003 cycles: 29773619 heartbeat IPC: 2.914 cumulative IPC: 2.917 (Simulation time: 00 hr 06 min 22 sec)
Heartbeat CPU 0 instructions: 110000000 cycles: 33199684 heartbeat IPC: 2.919 cumulative IPC: 2.917 (Simulation time: 00 hr 07 min 02 sec)
Heartbeat CPU 0 instructions: 120000001 cycles: 36624207 heartbeat IPC: 2.92 cumulative IPC: 2.918 (Simulation time: 00 hr 07 min 43 sec)
Heartbeat CPU 0 instructions: 130000001 cycles: 40050788 heartbeat IPC: 2.918 cumulative IPC: 2.918 (Simulation time: 00 hr 08 min 24 sec)
Heartbeat CPU 0 instructions: 140000002 cycles: 43477136 heartbeat IPC: 2.919 cumulative IPC: 2.918 (Simulation time: 00 hr 09 min 14 sec)
Heartbeat CPU 0 instructions: 150000000 cycles: 46902215 heartbeat IPC: 2.92 cumulative IPC: 2.918 (Simulation time: 00 hr 10 min 04 sec)
Heartbeat CPU 0 instructions: 160000002 cycles: 50328722 heartbeat IPC: 2.918 cumulative IPC: 2.918 (Simulation time: 00 hr 11 min 29 sec)
Heartbeat CPU 0 instructions: 170000000 cycles: 53756209 heartbeat IPC: 2.918 cumulative IPC: 2.918 (Simulation time: 00 hr 12 min 53 sec)
Heartbeat CPU 0 instructions: 180000004 cycles: 57182235 heartbeat IPC: 2.919 cumulative IPC: 2.918 (Simulation time: 00 hr 14 min 24 sec)
Heartbeat CPU 0 instructions: 190000001 cycles: 60608942 heartbeat IPC: 2.918 cumulative IPC: 2.918 (Simulation time: 00 hr 15 min 55 sec)
Heartbeat CPU 0 instructions: 200000001 cycles: 64034698 heartbeat IPC: 2.919 cumulative IPC: 2.918 (Simulation time: 00 hr 17 min 23 sec)
Heartbeat CPU 0 instructions: 210000004 cycles: 67460593 heartbeat IPC: 2.919 cumulative IPC: 2.918 (Simulation time: 00 hr 18 min 57 sec)
Heartbeat CPU 0 instructions: 220000002 cycles: 70888099 heartbeat IPC: 2.918 cumulative IPC: 2.918 (Simulation time: 00 hr 20 min 22 sec)
Heartbeat CPU 0 instructions: 230000001 cycles: 74327414 heartbeat IPC: 2.908 cumulative IPC: 2.918 (Simulation time: 00 hr 22 min 13 sec)
Heartbeat CPU 0 instructions: 240000003 cycles: 77072067 heartbeat IPC: 3.643 cumulative IPC: 2.948 (Simulation time: 00 hr 23 min 56 sec)
Heartbeat CPU 0 instructions: 250000003 cycles: 80505742 heartbeat IPC: 2.912 cumulative IPC: 2.947 (Simulation time: 00 hr 25 min 27 sec)
Heartbeat CPU 0 instructions: 260000000 cycles: 83932480 heartbeat IPC: 2.918 cumulative IPC: 2.945 (Simulation time: 00 hr 27 min 02 sec)
Heartbeat CPU 0 instructions: 270000004 cycles: 87358475 heartbeat IPC: 2.919 cumulative IPC: 2.944 (Simulation time: 00 hr 28 min 35 sec)
Heartbeat CPU 0 instructions: 280000000 cycles: 90786302 heartbeat IPC: 2.917 cumulative IPC: 2.943 (Simulation time: 00 hr 30 min 10 sec)
Heartbeat CPU 0 instructions: 290000002 cycles: 94214437 heartbeat IPC: 2.917 cumulative IPC: 2.942 (Simulation time: 00 hr 31 min 40 sec)
Heartbeat CPU 0 instructions: 300000004 cycles: 97638003 heartbeat IPC: 2.921 cumulative IPC: 2.941 (Simulation time: 00 hr 33 min 17 sec)
Heartbeat CPU 0 instructions: 310000002 cycles: 101066126 heartbeat IPC: 2.917 cumulative IPC: 2.94 (Simulation time: 00 hr 34 min 04 sec)
Heartbeat CPU 0 instructions: 320000000 cycles: 104493936 heartbeat IPC: 2.917 cumulative IPC: 2.939 (Simulation time: 00 hr 34 min 52 sec)
Heartbeat CPU 0 instructions: 330000004 cycles: 107920685 heartbeat IPC: 2.918 cumulative IPC: 2.938 (Simulation time: 00 hr 35 min 41 sec)
Heartbeat CPU 0 instructions: 340000000 cycles: 111347942 heartbeat IPC: 2.918 cumulative IPC: 2.938 (Simulation time: 00 hr 36 min 28 sec)
Heartbeat CPU 0 instructions: 350000003 cycles: 114776863 heartbeat IPC: 2.916 cumulative IPC: 2.937 (Simulation time: 00 hr 37 min 16 sec)
Heartbeat CPU 0 instructions: 360000003 cycles: 118204511 heartbeat IPC: 2.917 cumulative IPC: 2.936 (Simulation time: 00 hr 38 min 04 sec)
Heartbeat CPU 0 instructions: 370000004 cycles: 121630903 heartbeat IPC: 2.919 cumulative IPC: 2.936 (Simulation time: 00 hr 38 min 54 sec)
Heartbeat CPU 0 instructions: 380000003 cycles: 125056437 heartbeat IPC: 2.919 cumulative IPC: 2.935 (Simulation time: 00 hr 39 min 48 sec)
Heartbeat CPU 0 instructions: 390000000 cycles: 128477416 heartbeat IPC: 2.923 cumulative IPC: 2.935 (Simulation time: 00 hr 40 min 38 sec)
Heartbeat CPU 0 instructions: 400000002 cycles: 131904796 heartbeat IPC: 2.918 cumulative IPC: 2.934 (Simulation time: 00 hr 41 min 26 sec)
Heartbeat CPU 0 instructions: 410000003 cycles: 135332292 heartbeat IPC: 2.918 cumulative IPC: 2.934 (Simulation time: 00 hr 42 min 13 sec)
Heartbeat CPU 0 instructions: 420000001 cycles: 138760120 heartbeat IPC: 2.917 cumulative IPC: 2.934 (Simulation time: 00 hr 42 min 58 sec)
Heartbeat CPU 0 instructions: 430000001 cycles: 142188870 heartbeat IPC: 2.917 cumulative IPC: 2.933 (Simulation time: 00 hr 43 min 44 sec)
Heartbeat CPU 0 instructions: 440000002 cycles: 145613430 heartbeat IPC: 2.92 cumulative IPC: 2.933 (Simulation time: 00 hr 44 min 31 sec)
Heartbeat CPU 0 instructions: 450000001 cycles: 148384703 heartbeat IPC: 3.608 cumulative IPC: 2.947 (Simulation time: 00 hr 45 min 20 sec)
Heartbeat CPU 0 instructions: 460000002 cycles: 151118021 heartbeat IPC: 3.659 cumulative IPC: 2.961 (Simulation time: 00 hr 46 min 09 sec)
Heartbeat CPU 0 instructions: 470000004 cycles: 154541331 heartbeat IPC: 2.921 cumulative IPC: 2.96 (Simulation time: 00 hr 46 min 58 sec)
Heartbeat CPU 0 instructions: 480000000 cycles: 157969558 heartbeat IPC: 2.917 cumulative IPC: 2.959 (Simulation time: 00 hr 47 min 47 sec)
Heartbeat CPU 0 instructions: 490000000 cycles: 161394933 heartbeat IPC: 2.919 cumulative IPC: 2.958 (Simulation time: 00 hr 48 min 36 sec)
Heartbeat CPU 0 instructions: 500000002 cycles: 164821695 heartbeat IPC: 2.918 cumulative IPC: 2.957 (Simulation time: 00 hr 49 min 24 sec)
Heartbeat CPU 0 instructions: 510000001 cycles: 168250628 heartbeat IPC: 2.916 cumulative IPC: 2.956 (Simulation time: 00 hr 50 min 15 sec)
Heartbeat CPU 0 instructions: 520000003 cycles: 171675959 heartbeat IPC: 2.919 cumulative IPC: 2.955 (Simulation time: 00 hr 51 min 05 sec)
Heartbeat CPU 0 instructions: 530000002 cycles: 175099829 heartbeat IPC: 2.921 cumulative IPC: 2.954 (Simulation time: 00 hr 51 min 53 sec)
Heartbeat CPU 0 instructions: 540000000 cycles: 178528528 heartbeat IPC: 2.917 cumulative IPC: 2.954 (Simulation time: 00 hr 52 min 40 sec)
Heartbeat CPU 0 instructions: 550000000 cycles: 181954769 heartbeat IPC: 2.919 cumulative IPC: 2.953 (Simulation time: 00 hr 53 min 26 sec)
Heartbeat CPU 0 instructions: 560000001 cycles: 185379518 heartbeat IPC: 2.92 cumulative IPC: 2.952 (Simulation time: 00 hr 54 min 11 sec)
Heartbeat CPU 0 instructions: 570000001 cycles: 188805000 heartbeat IPC: 2.919 cumulative IPC: 2.952 (Simulation time: 00 hr 54 min 56 sec)
Heartbeat CPU 0 instructions: 580000000 cycles: 192234789 heartbeat IPC: 2.916 cumulative IPC: 2.951 (Simulation time: 00 hr 55 min 39 sec)
Heartbeat CPU 0 instructions: 590000003 cycles: 195661174 heartbeat IPC: 2.919 cumulative IPC: 2.95 (Simulation time: 00 hr 56 min 26 sec)
*** Reached end of trace: (0, "traces/l1l2cache.champsimtrace")
Heartbeat CPU 0 instructions: 600000001 cycles: 199089310 heartbeat IPC: 2.917 cumulative IPC: 2.95 (Simulation time: 00 hr 57 min 15 sec)
Heartbeat CPU 0 instructions: 610000001 cycles: 205731851 heartbeat IPC: 1.505 cumulative IPC: 2.9 (Simulation time: 00 hr 58 min 37 sec)
Heartbeat CPU 0 instructions: 620000004 cycles: 208493651 heartbeat IPC: 3.621 cumulative IPC: 2.91 (Simulation time: 00 hr 59 min 27 sec)
Heartbeat CPU 0 instructions: 630000004 cycles: 211916727 heartbeat IPC: 2.921 cumulative IPC: 2.91 (Simulation time: 01 hr 00 min 16 sec)
Heartbeat CPU 0 instructions: 640000000 cycles: 215341655 heartbeat IPC: 2.92 cumulative IPC: 2.911 (Simulation time: 01 hr 01 min 06 sec)
Heartbeat CPU 0 instructions: 650000004 cycles: 218771059 heartbeat IPC: 2.916 cumulative IPC: 2.911 (Simulation time: 01 hr 01 min 53 sec)
Simulation finished CPU 0 instructions: 600000004 cycles: 206139785 cumulative IPC: 2.911 (Simulation time: 01 hr 01 min 53 sec)
Simulation complete CPU 0 instructions: 600000004 cycles: 206139785 cumulative IPC: 2.911 (Simulation time: 01 hr 01 min 53 sec)

ChampSim completed all CPUs

=== Simulation ===
CPU 0 runs traces/l1l2cache.champsimtrace
Region of Interest Statistics

CPU 0 cumulative IPC: 2.911 instructions: 600000004 cycles: 206139785
CPU 0 Branch Prediction Accuracy: 93.04% MPKI: 5.913 Average ROB Occupancy at Mispredict: 67.87
Branch type MPKI
BRANCH_DIRECT_JUMP: 9.5e-05
BRANCH_INDIRECT: 0.000282
BRANCH_CONDITIONAL: 5.91
BRANCH_DIRECT_CALL: 3.33e-06
BRANCH_INDIRECT_CALL: 4.83e-05
BRANCH_RETURN: 3.33e-05

LLC TOTAL        ACCESS:     408757 HIT:     348210 MISS:      60547
LLC LOAD         ACCESS:      59445 HIT:      51998 MISS:       7447
LLC RFO          ACCESS:      99913 HIT:      68721 MISS:      31192
LLC PREFETCH     ACCESS:     149092 HIT:     148690 MISS:        402
LLC WRITE        ACCESS:     100302 HIT:      78801 MISS:      21501
LLC TRANSLATION  ACCESS:          5 HIT:          0 MISS:          5
LLC PREFETCH REQUESTED:     149092 ISSUED:     149092 USEFUL:        167 USELESS:        241
LLC AVERAGE MISS LATENCY: 357.6 cycles
cpu0_DTLB TOTAL        ACCESS:   82422982 HIT:   82412101 MISS:      10881
cpu0_DTLB LOAD         ACCESS:   82422982 HIT:   82412101 MISS:      10881
cpu0_DTLB RFO          ACCESS:          0 HIT:          0 MISS:          0
cpu0_DTLB PREFETCH     ACCESS:          0 HIT:          0 MISS:          0
cpu0_DTLB WRITE        ACCESS:          0 HIT:          0 MISS:          0
cpu0_DTLB TRANSLATION  ACCESS:          0 HIT:          0 MISS:          0
cpu0_DTLB PREFETCH REQUESTED:          0 ISSUED:          0 USEFUL:          0 USELESS:          0
cpu0_DTLB AVERAGE MISS LATENCY: 5.866 cycles
cpu0_ITLB TOTAL        ACCESS:       5572 HIT:       5354 MISS:        218
cpu0_ITLB LOAD         ACCESS:       5572 HIT:       5354 MISS:        218
cpu0_ITLB RFO          ACCESS:          0 HIT:          0 MISS:          0
cpu0_ITLB PREFETCH     ACCESS:          0 HIT:          0 MISS:          0
cpu0_ITLB WRITE        ACCESS:          0 HIT:          0 MISS:          0
cpu0_ITLB TRANSLATION  ACCESS:          0 HIT:          0 MISS:          0
cpu0_ITLB PREFETCH REQUESTED:          0 ISSUED:          0 USEFUL:          0 USELESS:          0
cpu0_ITLB AVERAGE MISS LATENCY: 6.459 cycles
cpu0_L1D TOTAL        ACCESS:  104717326 HIT:  103281048 MISS:    1436278
cpu0_L1D LOAD         ACCESS:   45423798 HIT:   45074483 MISS:     349315
cpu0_L1D RFO          ACCESS:          0 HIT:          0 MISS:          0
cpu0_L1D PREFETCH     ACCESS:          0 HIT:          0 MISS:          0
cpu0_L1D WRITE        ACCESS:   59293270 HIT:   58206312 MISS:    1086958
cpu0_L1D TRANSLATION  ACCESS:        258 HIT:        253 MISS:          5
cpu0_L1D PREFETCH REQUESTED:          0 ISSUED:          0 USEFUL:          0 USELESS:          0
cpu0_L1D AVERAGE MISS LATENCY: 13.76 cycles
cpu0_L1I TOTAL        ACCESS:       6336 HIT:       4058 MISS:       2278
cpu0_L1I LOAD         ACCESS:       6336 HIT:       4058 MISS:       2278
cpu0_L1I RFO          ACCESS:          0 HIT:          0 MISS:          0
cpu0_L1I PREFETCH     ACCESS:          0 HIT:          0 MISS:          0
cpu0_L1I WRITE        ACCESS:          0 HIT:          0 MISS:          0
cpu0_L1I TRANSLATION  ACCESS:          0 HIT:          0 MISS:          0
cpu0_L1I PREFETCH REQUESTED:          0 ISSUED:          0 USEFUL:          0 USELESS:          0
cpu0_L1I AVERAGE MISS LATENCY: 623.1 cycles
cpu0_L2C TOTAL        ACCESS:     265734 HIT:     106349 MISS:     159385
cpu0_L2C LOAD         ACCESS:      63734 HIT:       4289 MISS:      59445
cpu0_L2C RFO          ACCESS:     100734 HIT:        821 MISS:      99913
cpu0_L2C PREFETCH     ACCESS:          0 HIT:          0 MISS:          0
cpu0_L2C WRITE        ACCESS:     101261 HIT:     101239 MISS:         22
cpu0_L2C TRANSLATION  ACCESS:          5 HIT:          0 MISS:          5
cpu0_L2C PREFETCH REQUESTED:          0 ISSUED:          0 USEFUL:          0 USELESS:          0
cpu0_L2C AVERAGE MISS LATENCY: 154.7 cycles
cpu0_STLB TOTAL        ACCESS:       3913 HIT:       3656 MISS:        257
cpu0_STLB LOAD         ACCESS:       3913 HIT:       3656 MISS:        257
cpu0_STLB RFO          ACCESS:          0 HIT:          0 MISS:          0
cpu0_STLB PREFETCH     ACCESS:          0 HIT:          0 MISS:          0
cpu0_STLB WRITE        ACCESS:          0 HIT:          0 MISS:          0
cpu0_STLB TRANSLATION  ACCESS:          0 HIT:          0 MISS:          0
cpu0_STLB PREFETCH REQUESTED:          0 ISSUED:          0 USEFUL:          0 USELESS:          0
cpu0_STLB AVERAGE MISS LATENCY: 218.3 cycles

DRAM Statistics

Channel 0 RQ ROW_BUFFER_HIT:      23410
  ROW_BUFFER_MISS:      15496
 AVG DBUS CONGESTED CYCLE: 3.974
WQ ROW_BUFFER_HIT: Channel 0 
  ROW_BUFFER_MISS:       4930
  FULL:      15317
