WARNING: physical memory size is smaller than virtual memory size.

*** ChampSim Multicore Out-of-Order Simulator ***
Warmup Instructions: 50000000
Simulation Instructions: 600000000
Number of CPUs: 1
Page size: 4096

CPU 0 Tage branch predictor
Off-chip DRAM Size: 4 GiB Channels: 1 Width: 64-bit Data Race: 3200 MT/s
Heartbeat CPU 0 instructions: 10000004 cycles: 2777663 heartbeat IPC: 3.6 cumulative IPC: 3.6 (Simulation time: 00 hr 00 min 57 sec)
Heartbeat CPU 0 instructions: 20000001 cycles: 5634805 heartbeat IPC: 3.5 cumulative IPC: 3.549 (Simulation time: 00 hr 02 min 06 sec)
Heartbeat CPU 0 instructions: 30000000 cycles: 8491948 heartbeat IPC: 3.5 cumulative IPC: 3.533 (Simulation time: 00 hr 03 min 16 sec)
Heartbeat CPU 0 instructions: 40000003 cycles: 11120601 heartbeat IPC: 3.804 cumulative IPC: 3.597 (Simulation time: 00 hr 04 min 22 sec)
Heartbeat CPU 0 instructions: 50000003 cycles: 13620601 heartbeat IPC: 4 cumulative IPC: 3.671 (Simulation time: 00 hr 05 min 25 sec)
Warmup finished CPU 0 instructions: 50000003 cycles: 13620602 cumulative IPC: 3.671 (Simulation time: 00 hr 05 min 25 sec)
Warmup complete CPU 0 instructions: 50000003 cycles: 13620602 cumulative IPC: 3.671 (Simulation time: 00 hr 05 min 25 sec)
Heartbeat CPU 0 instructions: 60000002 cycles: 16120603 heartbeat IPC: 4 cumulative IPC: 4 (Simulation time: 00 hr 06 min 36 sec)
Heartbeat CPU 0 instructions: 70000001 cycles: 18620602 heartbeat IPC: 4 cumulative IPC: 4 (Simulation time: 00 hr 07 min 46 sec)
Heartbeat CPU 0 instructions: 80000000 cycles: 21120601 heartbeat IPC: 4 cumulative IPC: 4 (Simulation time: 00 hr 08 min 53 sec)
Heartbeat CPU 0 instructions: 90000003 cycles: 23620951 heartbeat IPC: 3.999 cumulative IPC: 4 (Simulation time: 00 hr 10 min 04 sec)
Heartbeat CPU 0 instructions: 100000003 cycles: 26120952 heartbeat IPC: 4 cumulative IPC: 4 (Simulation time: 00 hr 11 min 12 sec)
Heartbeat CPU 0 instructions: 110000004 cycles: 28620953 heartbeat IPC: 4 cumulative IPC: 4 (Simulation time: 00 hr 12 min 22 sec)
Heartbeat CPU 0 instructions: 120000003 cycles: 31120952 heartbeat IPC: 4 cumulative IPC: 4 (Simulation time: 00 hr 13 min 28 sec)
Heartbeat CPU 0 instructions: 130000002 cycles: 33620951 heartbeat IPC: 4 cumulative IPC: 4 (Simulation time: 00 hr 14 min 35 sec)
Heartbeat CPU 0 instructions: 140000000 cycles: 36122607 heartbeat IPC: 3.997 cumulative IPC: 4 (Simulation time: 00 hr 15 min 48 sec)
Heartbeat CPU 0 instructions: 150000000 cycles: 38622608 heartbeat IPC: 4 cumulative IPC: 4 (Simulation time: 00 hr 17 min 05 sec)
Heartbeat CPU 0 instructions: 160000001 cycles: 41122609 heartbeat IPC: 4 cumulative IPC: 4 (Simulation time: 00 hr 18 min 16 sec)
Heartbeat CPU 0 instructions: 170000004 cycles: 43622609 heartbeat IPC: 4 cumulative IPC: 4 (Simulation time: 00 hr 19 min 30 sec)
Heartbeat CPU 0 instructions: 180000000 cycles: 46124430 heartbeat IPC: 3.997 cumulative IPC: 4 (Simulation time: 00 hr 20 min 47 sec)
Heartbeat CPU 0 instructions: 190000004 cycles: 48624431 heartbeat IPC: 4 cumulative IPC: 4 (Simulation time: 00 hr 21 min 59 sec)
Heartbeat CPU 0 instructions: 200000002 cycles: 51124431 heartbeat IPC: 4 cumulative IPC: 4 (Simulation time: 00 hr 23 min 12 sec)
Heartbeat CPU 0 instructions: 210000003 cycles: 53624432 heartbeat IPC: 4 cumulative IPC: 4 (Simulation time: 00 hr 24 min 23 sec)
Heartbeat CPU 0 instructions: 220000001 cycles: 56124431 heartbeat IPC: 4 cumulative IPC: 4 (Simulation time: 00 hr 25 min 35 sec)
Heartbeat CPU 0 instructions: 230000002 cycles: 58625398 heartbeat IPC: 3.998 cumulative IPC: 4 (Simulation time: 00 hr 26 min 45 sec)
Heartbeat CPU 0 instructions: 240000003 cycles: 61125398 heartbeat IPC: 4 cumulative IPC: 4 (Simulation time: 00 hr 27 min 52 sec)
Heartbeat CPU 0 instructions: 250000004 cycles: 63625399 heartbeat IPC: 4 cumulative IPC: 4 (Simulation time: 00 hr 29 min 01 sec)
Heartbeat CPU 0 instructions: 260000000 cycles: 66125399 heartbeat IPC: 4 cumulative IPC: 4 (Simulation time: 00 hr 30 min 13 sec)
Heartbeat CPU 0 instructions: 270000003 cycles: 68625790 heartbeat IPC: 3.999 cumulative IPC: 4 (Simulation time: 00 hr 31 min 25 sec)
Heartbeat CPU 0 instructions: 280000001 cycles: 71125789 heartbeat IPC: 4 cumulative IPC: 4 (Simulation time: 00 hr 32 min 37 sec)
Heartbeat CPU 0 instructions: 290000000 cycles: 73625789 heartbeat IPC: 4 cumulative IPC: 4 (Simulation time: 00 hr 33 min 54 sec)
Heartbeat CPU 0 instructions: 300000001 cycles: 76125790 heartbeat IPC: 4 cumulative IPC: 4 (Simulation time: 00 hr 35 min 07 sec)
Heartbeat CPU 0 instructions: 310000000 cycles: 78625790 heartbeat IPC: 4 cumulative IPC: 4 (Simulation time: 00 hr 36 min 17 sec)
Heartbeat CPU 0 instructions: 320000000 cycles: 81126752 heartbeat IPC: 3.998 cumulative IPC: 4 (Simulation time: 00 hr 37 min 31 sec)
Heartbeat CPU 0 instructions: 330000000 cycles: 83626750 heartbeat IPC: 4 cumulative IPC: 4 (Simulation time: 00 hr 38 min 46 sec)
Heartbeat CPU 0 instructions: 340000002 cycles: 86126751 heartbeat IPC: 4 cumulative IPC: 4 (Simulation time: 00 hr 39 min 55 sec)
Heartbeat CPU 0 instructions: 350000003 cycles: 88626752 heartbeat IPC: 4 cumulative IPC: 4 (Simulation time: 00 hr 41 min 07 sec)
Heartbeat CPU 0 instructions: 360000001 cycles: 91127887 heartbeat IPC: 3.998 cumulative IPC: 4 (Simulation time: 00 hr 42 min 19 sec)
Heartbeat CPU 0 instructions: 370000002 cycles: 93627888 heartbeat IPC: 4 cumulative IPC: 4 (Simulation time: 00 hr 43 min 30 sec)
Heartbeat CPU 0 instructions: 380000002 cycles: 96127886 heartbeat IPC: 4 cumulative IPC: 4 (Simulation time: 00 hr 44 min 42 sec)
Heartbeat CPU 0 instructions: 390000004 cycles: 98627887 heartbeat IPC: 4 cumulative IPC: 4 (Simulation time: 00 hr 45 min 51 sec)
Heartbeat CPU 0 instructions: 400000000 cycles: 101127887 heartbeat IPC: 4 cumulative IPC: 4 (Simulation time: 00 hr 46 min 59 sec)
Heartbeat CPU 0 instructions: 410000003 cycles: 103629409 heartbeat IPC: 3.998 cumulative IPC: 4 (Simulation time: 00 hr 48 min 08 sec)
Heartbeat CPU 0 instructions: 420000003 cycles: 112237986 heartbeat IPC: 1.162 cumulative IPC: 3.752 (Simulation time: 00 hr 50 min 23 sec)
Heartbeat CPU 0 instructions: 430000002 cycles: 140210868 heartbeat IPC: 0.3575 cumulative IPC: 3.002 (Simulation time: 00 hr 56 min 29 sec)
Heartbeat CPU 0 instructions: 440000004 cycles: 168187596 heartbeat IPC: 0.3574 cumulative IPC: 2.523 (Simulation time: 01 hr 05 min 07 sec)
Heartbeat CPU 0 instructions: 450000000 cycles: 196273318 heartbeat IPC: 0.3561 cumulative IPC: 2.19 (Simulation time: 01 hr 15 min 46 sec)
Heartbeat CPU 0 instructions: 460000002 cycles: 224222591 heartbeat IPC: 0.3578 cumulative IPC: 1.947 (Simulation time: 01 hr 26 min 46 sec)
Heartbeat CPU 0 instructions: 470000003 cycles: 252255834 heartbeat IPC: 0.3567 cumulative IPC: 1.76 (Simulation time: 01 hr 37 min 17 sec)
Heartbeat CPU 0 instructions: 480000004 cycles: 280147982 heartbeat IPC: 0.3585 cumulative IPC: 1.613 (Simulation time: 01 hr 49 min 25 sec)
Heartbeat CPU 0 instructions: 490000000 cycles: 308188756 heartbeat IPC: 0.3566 cumulative IPC: 1.494 (Simulation time: 02 hr 01 min 14 sec)
Heartbeat CPU 0 instructions: 500000001 cycles: 336245056 heartbeat IPC: 0.3564 cumulative IPC: 1.395 (Simulation time: 02 hr 12 min 14 sec)
Heartbeat CPU 0 instructions: 510000002 cycles: 364209996 heartbeat IPC: 0.3576 cumulative IPC: 1.312 (Simulation time: 02 hr 21 min 38 sec)
Heartbeat CPU 0 instructions: 520000003 cycles: 392250876 heartbeat IPC: 0.3566 cumulative IPC: 1.241 (Simulation time: 02 hr 27 min 52 sec)
Heartbeat CPU 0 instructions: 530000004 cycles: 420088504 heartbeat IPC: 0.3592 cumulative IPC: 1.181 (Simulation time: 02 hr 34 min 01 sec)
Heartbeat CPU 0 instructions: 540000004 cycles: 448043888 heartbeat IPC: 0.3577 cumulative IPC: 1.128 (Simulation time: 02 hr 40 min 27 sec)
Heartbeat CPU 0 instructions: 550000000 cycles: 476038350 heartbeat IPC: 0.3572 cumulative IPC: 1.081 (Simulation time: 02 hr 46 min 52 sec)
Heartbeat CPU 0 instructions: 560000002 cycles: 503974027 heartbeat IPC: 0.358 cumulative IPC: 1.04 (Simulation time: 02 hr 53 min 13 sec)
Heartbeat CPU 0 instructions: 570000002 cycles: 532008907 heartbeat IPC: 0.3567 cumulative IPC: 1.003 (Simulation time: 03 hr 00 min 30 sec)
Heartbeat CPU 0 instructions: 580000004 cycles: 560018013 heartbeat IPC: 0.357 cumulative IPC: 0.97 (Simulation time: 03 hr 06 min 46 sec)
Heartbeat CPU 0 instructions: 590000000 cycles: 587993280 heartbeat IPC: 0.3575 cumulative IPC: 0.9402 (Simulation time: 03 hr 13 min 06 sec)
*** Reached end of trace: (0, "traces/l1l2l3cache.champsimtrace")
Heartbeat CPU 0 instructions: 600000000 cycles: 615966320 heartbeat IPC: 0.3575 cumulative IPC: 0.9131 (Simulation time: 03 hr 19 min 22 sec)
Heartbeat CPU 0 instructions: 610000002 cycles: 624745727 heartbeat IPC: 1.139 cumulative IPC: 0.9163 (Simulation time: 03 hr 23 min 23 sec)
Heartbeat CPU 0 instructions: 620000001 cycles: 640228755 heartbeat IPC: 0.6459 cumulative IPC: 0.9097 (Simulation time: 03 hr 30 min 59 sec)
Heartbeat CPU 0 instructions: 630000004 cycles: 655691037 heartbeat IPC: 0.6467 cumulative IPC: 0.9033 (Simulation time: 03 hr 40 min 07 sec)
Heartbeat CPU 0 instructions: 640000000 cycles: 662883545 heartbeat IPC: 1.39 cumulative IPC: 0.9087 (Simulation time: 03 hr 44 min 58 sec)
Heartbeat CPU 0 instructions: 650000001 cycles: 665383546 heartbeat IPC: 4 cumulative IPC: 0.9206 (Simulation time: 03 hr 48 min 08 sec)
Simulation finished CPU 0 instructions: 600000003 cycles: 651762946 cumulative IPC: 0.9206 (Simulation time: 03 hr 48 min 08 sec)
Simulation complete CPU 0 instructions: 600000003 cycles: 651762946 cumulative IPC: 0.9206 (Simulation time: 03 hr 48 min 08 sec)

ChampSim completed all CPUs

=== Simulation ===
CPU 0 runs traces/l1l2l3cache.champsimtrace
Region of Interest Statistics

CPU 0 cumulative IPC: 0.9206 instructions: 600000003 cycles: 651762946
CPU 0 Branch Prediction Accuracy: 99.99% MPKI: 0.01094 Average ROB Occupancy at Mispredict: 162.5
Branch type MPKI
BRANCH_DIRECT_JUMP: 8.5e-05
BRANCH_INDIRECT: 0.000237
BRANCH_CONDITIONAL: 0.0105
BRANCH_DIRECT_CALL: 5e-06
BRANCH_INDIRECT_CALL: 4.67e-05
BRANCH_RETURN: 3.67e-05

LLC TOTAL        ACCESS:    5043916 HIT:     391121 MISS:    4652795
LLC LOAD         ACCESS:    1954448 HIT:     154362 MISS:    1800086
LLC RFO          ACCESS:     561708 HIT:      40802 MISS:     520906
LLC PREFETCH     ACCESS:    1954448 HIT:     154057 MISS:    1800391
LLC WRITE        ACCESS:     562069 HIT:      41578 MISS:     520491
LLC TRANSLATION  ACCESS:      11243 HIT:        322 MISS:      10921
LLC PREFETCH REQUESTED:    1954448 ISSUED:    1954448 USEFUL:       7773 USELESS:    1792184
LLC AVERAGE MISS LATENCY: 916.2 cycles
cpu0_DTLB TOTAL        ACCESS:  124402300 HIT:  122387374 MISS:    2014926
cpu0_DTLB LOAD         ACCESS:  124402300 HIT:  122387374 MISS:    2014926
cpu0_DTLB RFO          ACCESS:          0 HIT:          0 MISS:          0
cpu0_DTLB PREFETCH     ACCESS:          0 HIT:          0 MISS:          0
cpu0_DTLB WRITE        ACCESS:          0 HIT:          0 MISS:          0
cpu0_DTLB TRANSLATION  ACCESS:          0 HIT:          0 MISS:          0
cpu0_DTLB PREFETCH REQUESTED:          0 ISSUED:          0 USEFUL:          0 USELESS:          0
cpu0_DTLB AVERAGE MISS LATENCY: 22.01 cycles
cpu0_ITLB TOTAL        ACCESS:       5041 HIT:       4799 MISS:        242
cpu0_ITLB LOAD         ACCESS:       5041 HIT:       4799 MISS:        242
cpu0_ITLB RFO          ACCESS:          0 HIT:          0 MISS:          0
cpu0_ITLB PREFETCH     ACCESS:          0 HIT:          0 MISS:          0
cpu0_ITLB WRITE        ACCESS:          0 HIT:          0 MISS:          0
cpu0_ITLB TRANSLATION  ACCESS:          0 HIT:          0 MISS:          0
cpu0_ITLB PREFETCH REQUESTED:          0 ISSUED:          0 USEFUL:          0 USELESS:          0
cpu0_ITLB AVERAGE MISS LATENCY: 60.13 cycles
cpu0_L1D TOTAL        ACCESS:  172283157 HIT:  160968805 MISS:   11314352
cpu0_L1D LOAD         ACCESS:   63967641 HIT:   61927672 MISS:    2039969
cpu0_L1D RFO          ACCESS:          0 HIT:          0 MISS:          0
cpu0_L1D PREFETCH     ACCESS:          0 HIT:          0 MISS:          0
cpu0_L1D WRITE        ACCESS:  107010021 HIT:   98481887 MISS:    8528134
cpu0_L1D TRANSLATION  ACCESS:    1305495 HIT:     559246 MISS:     746249
cpu0_L1D PREFETCH REQUESTED:          0 ISSUED:          0 USEFUL:          0 USELESS:          0
cpu0_L1D AVERAGE MISS LATENCY: 198.2 cycles
cpu0_L1I TOTAL        ACCESS:       5809 HIT:       3335 MISS:       2474
cpu0_L1I LOAD         ACCESS:       5809 HIT:       3335 MISS:       2474
cpu0_L1I RFO          ACCESS:          0 HIT:          0 MISS:          0
cpu0_L1I PREFETCH     ACCESS:          0 HIT:          0 MISS:          0
cpu0_L1I WRITE        ACCESS:          0 HIT:          0 MISS:          0
cpu0_L1I TRANSLATION  ACCESS:          0 HIT:          0 MISS:          0
cpu0_L1I PREFETCH REQUESTED:          0 ISSUED:          0 USEFUL:          0 USELESS:          0
cpu0_L1I AVERAGE MISS LATENCY: 103 cycles
cpu0_L2C TOTAL        ACCESS:    3905956 HIT:    1378541 MISS:    2527415
cpu0_L2C LOAD         ACCESS:    2009352 HIT:      54904 MISS:    1954448
cpu0_L2C RFO          ACCESS:     574599 HIT:      12891 MISS:     561708
cpu0_L2C PREFETCH     ACCESS:          0 HIT:          0 MISS:          0
cpu0_L2C WRITE        ACCESS:     575779 HIT:     575763 MISS:         16
cpu0_L2C TRANSLATION  ACCESS:     746226 HIT:     734983 MISS:      11243
cpu0_L2C PREFETCH REQUESTED:          0 ISSUED:          0 USEFUL:          0 USELESS:          0
cpu0_L2C AVERAGE MISS LATENCY: 907.2 cycles
cpu0_STLB TOTAL        ACCESS:    1982610 HIT:     677123 MISS:    1305487
cpu0_STLB LOAD         ACCESS:    1982610 HIT:     677123 MISS:    1305487
cpu0_STLB RFO          ACCESS:          0 HIT:          0 MISS:          0
cpu0_STLB PREFETCH     ACCESS:          0 HIT:          0 MISS:          0
cpu0_STLB WRITE        ACCESS:          0 HIT:          0 MISS:          0
cpu0_STLB TRANSLATION  ACCESS:          0 HIT:          0 MISS:          0
cpu0_STLB PREFETCH REQUESTED:          0 ISSUED:          0 USEFUL:          0 USELESS:          0
cpu0_STLB AVERAGE MISS LATENCY: 20.89 cycles

DRAM Statistics

Channel 0 RQ ROW_BUFFER_HIT:      94149
  ROW_BUFFER_MISS:    4036775
 AVG DBUS CONGESTED CYCLE: 3.972
WQ ROW_BUFFER_HIT: Channel 0 
  ROW_BUFFER_MISS:     179247
  FULL:     341741
