WARNING: physical memory size is smaller than virtual memory size.

*** ChampSim Multicore Out-of-Order Simulator ***
Warmup Instructions: 50000000
Simulation Instructions: 600000000
Number of CPUs: 1
Page size: 4096

CPU 0 Tage branch predictor
Off-chip DRAM Size: 4 GiB Channels: 1 Width: 64-bit Data Race: 3200 MT/s
Heartbeat CPU 0 instructions: 10000004 cycles: 2777663 heartbeat IPC: 3.6 cumulative IPC: 3.6 (Simulation time: 00 hr 02 min 30 sec)
Heartbeat CPU 0 instructions: 20000001 cycles: 5634805 heartbeat IPC: 3.5 cumulative IPC: 3.549 (Simulation time: 00 hr 04 min 58 sec)
Heartbeat CPU 0 instructions: 30000000 cycles: 8491948 heartbeat IPC: 3.5 cumulative IPC: 3.533 (Simulation time: 00 hr 07 min 10 sec)
Heartbeat CPU 0 instructions: 40000003 cycles: 11120601 heartbeat IPC: 3.804 cumulative IPC: 3.597 (Simulation time: 00 hr 09 min 26 sec)
Heartbeat CPU 0 instructions: 50000003 cycles: 13620601 heartbeat IPC: 4 cumulative IPC: 3.671 (Simulation time: 00 hr 12 min 33 sec)
Warmup finished CPU 0 instructions: 50000003 cycles: 13620602 cumulative IPC: 3.671 (Simulation time: 00 hr 12 min 33 sec)
Warmup complete CPU 0 instructions: 50000003 cycles: 13620602 cumulative IPC: 3.671 (Simulation time: 00 hr 12 min 33 sec)
Heartbeat CPU 0 instructions: 60000002 cycles: 16120603 heartbeat IPC: 4 cumulative IPC: 4 (Simulation time: 00 hr 15 min 41 sec)
Heartbeat CPU 0 instructions: 70000001 cycles: 18620602 heartbeat IPC: 4 cumulative IPC: 4 (Simulation time: 00 hr 18 min 37 sec)
Heartbeat CPU 0 instructions: 80000000 cycles: 21120601 heartbeat IPC: 4 cumulative IPC: 4 (Simulation time: 00 hr 21 min 18 sec)
Heartbeat CPU 0 instructions: 90000003 cycles: 23621725 heartbeat IPC: 3.998 cumulative IPC: 4 (Simulation time: 00 hr 24 min 43 sec)
Heartbeat CPU 0 instructions: 100000003 cycles: 26121726 heartbeat IPC: 4 cumulative IPC: 4 (Simulation time: 00 hr 27 min 50 sec)
Heartbeat CPU 0 instructions: 110000004 cycles: 28621727 heartbeat IPC: 4 cumulative IPC: 4 (Simulation time: 00 hr 30 min 20 sec)
Heartbeat CPU 0 instructions: 120000003 cycles: 31121726 heartbeat IPC: 4 cumulative IPC: 4 (Simulation time: 00 hr 33 min 21 sec)
Heartbeat CPU 0 instructions: 130000002 cycles: 33621725 heartbeat IPC: 4 cumulative IPC: 4 (Simulation time: 00 hr 36 min 28 sec)
Heartbeat CPU 0 instructions: 140000004 cycles: 36122032 heartbeat IPC: 4 cumulative IPC: 4 (Simulation time: 00 hr 39 min 20 sec)
Heartbeat CPU 0 instructions: 150000000 cycles: 38622032 heartbeat IPC: 4 cumulative IPC: 4 (Simulation time: 00 hr 42 min 39 sec)
Heartbeat CPU 0 instructions: 160000001 cycles: 41122033 heartbeat IPC: 4 cumulative IPC: 4 (Simulation time: 00 hr 45 min 16 sec)
Heartbeat CPU 0 instructions: 170000004 cycles: 43622033 heartbeat IPC: 4 cumulative IPC: 4 (Simulation time: 00 hr 47 min 33 sec)
Heartbeat CPU 0 instructions: 180000000 cycles: 46122861 heartbeat IPC: 3.999 cumulative IPC: 4 (Simulation time: 00 hr 50 min 40 sec)
Heartbeat CPU 0 instructions: 190000004 cycles: 48622862 heartbeat IPC: 4 cumulative IPC: 4 (Simulation time: 00 hr 53 min 49 sec)
Heartbeat CPU 0 instructions: 200000002 cycles: 51122862 heartbeat IPC: 4 cumulative IPC: 4 (Simulation time: 00 hr 56 min 28 sec)
Heartbeat CPU 0 instructions: 210000003 cycles: 53622863 heartbeat IPC: 4 cumulative IPC: 4 (Simulation time: 00 hr 58 min 59 sec)
Heartbeat CPU 0 instructions: 220000001 cycles: 56122862 heartbeat IPC: 4 cumulative IPC: 4 (Simulation time: 01 hr 01 min 45 sec)
Heartbeat CPU 0 instructions: 230000002 cycles: 58623168 heartbeat IPC: 4 cumulative IPC: 4 (Simulation time: 01 hr 05 min 21 sec)
Heartbeat CPU 0 instructions: 240000003 cycles: 61123168 heartbeat IPC: 4 cumulative IPC: 4 (Simulation time: 01 hr 08 min 12 sec)
Heartbeat CPU 0 instructions: 250000004 cycles: 63623169 heartbeat IPC: 4 cumulative IPC: 4 (Simulation time: 01 hr 10 min 51 sec)
Heartbeat CPU 0 instructions: 260000000 cycles: 66123169 heartbeat IPC: 4 cumulative IPC: 4 (Simulation time: 01 hr 13 min 24 sec)
Heartbeat CPU 0 instructions: 270000003 cycles: 68623998 heartbeat IPC: 3.999 cumulative IPC: 4 (Simulation time: 01 hr 16 min 51 sec)
Heartbeat CPU 0 instructions: 280000001 cycles: 71123997 heartbeat IPC: 4 cumulative IPC: 4 (Simulation time: 01 hr 19 min 50 sec)
Heartbeat CPU 0 instructions: 290000000 cycles: 73623997 heartbeat IPC: 4 cumulative IPC: 4 (Simulation time: 01 hr 22 min 34 sec)
Heartbeat CPU 0 instructions: 300000001 cycles: 76123998 heartbeat IPC: 4 cumulative IPC: 4 (Simulation time: 01 hr 25 min 44 sec)
Heartbeat CPU 0 instructions: 310000000 cycles: 78623998 heartbeat IPC: 4 cumulative IPC: 4 (Simulation time: 01 hr 28 min 56 sec)
Heartbeat CPU 0 instructions: 320000000 cycles: 81125131 heartbeat IPC: 3.998 cumulative IPC: 4 (Simulation time: 01 hr 31 min 42 sec)
Heartbeat CPU 0 instructions: 330000000 cycles: 83625129 heartbeat IPC: 4 cumulative IPC: 4 (Simulation time: 01 hr 34 min 44 sec)
Heartbeat CPU 0 instructions: 340000002 cycles: 86125130 heartbeat IPC: 4 cumulative IPC: 4 (Simulation time: 01 hr 37 min 53 sec)
Heartbeat CPU 0 instructions: 350000003 cycles: 88625131 heartbeat IPC: 4 cumulative IPC: 4 (Simulation time: 01 hr 40 min 25 sec)
Heartbeat CPU 0 instructions: 360000001 cycles: 91125438 heartbeat IPC: 4 cumulative IPC: 4 (Simulation time: 01 hr 43 min 10 sec)
Heartbeat CPU 0 instructions: 370000002 cycles: 93625439 heartbeat IPC: 4 cumulative IPC: 4 (Simulation time: 01 hr 46 min 46 sec)
Heartbeat CPU 0 instructions: 380000002 cycles: 96125438 heartbeat IPC: 4 cumulative IPC: 4 (Simulation time: 01 hr 49 min 33 sec)
Heartbeat CPU 0 instructions: 390000004 cycles: 98625439 heartbeat IPC: 4 cumulative IPC: 4 (Simulation time: 01 hr 52 min 07 sec)
Heartbeat CPU 0 instructions: 400000000 cycles: 101125439 heartbeat IPC: 4 cumulative IPC: 4 (Simulation time: 01 hr 54 min 54 sec)
Heartbeat CPU 0 instructions: 410000003 cycles: 103625746 heartbeat IPC: 4 cumulative IPC: 4 (Simulation time: 01 hr 58 min 17 sec)
Heartbeat CPU 0 instructions: 420000003 cycles: 115244715 heartbeat IPC: 0.8607 cumulative IPC: 3.641 (Simulation time: 02 hr 05 min 25 sec)
Heartbeat CPU 0 instructions: 430000003 cycles: 143663140 heartbeat IPC: 0.3519 cumulative IPC: 2.922 (Simulation time: 02 hr 21 min 33 sec)
Heartbeat CPU 0 instructions: 440000000 cycles: 171406284 heartbeat IPC: 0.3604 cumulative IPC: 2.472 (Simulation time: 02 hr 37 min 03 sec)
Heartbeat CPU 0 instructions: 450000000 cycles: 199162841 heartbeat IPC: 0.3603 cumulative IPC: 2.156 (Simulation time: 02 hr 53 min 05 sec)
Heartbeat CPU 0 instructions: 460000002 cycles: 226875677 heartbeat IPC: 0.3608 cumulative IPC: 1.923 (Simulation time: 03 hr 09 min 02 sec)
Heartbeat CPU 0 instructions: 470000003 cycles: 254662994 heartbeat IPC: 0.3599 cumulative IPC: 1.742 (Simulation time: 03 hr 22 min 55 sec)
Heartbeat CPU 0 instructions: 480000004 cycles: 282395608 heartbeat IPC: 0.3606 cumulative IPC: 1.6 (Simulation time: 03 hr 28 min 24 sec)
Heartbeat CPU 0 instructions: 490000000 cycles: 310150465 heartbeat IPC: 0.3603 cumulative IPC: 1.484 (Simulation time: 03 hr 32 min 41 sec)
Heartbeat CPU 0 instructions: 500000000 cycles: 337905964 heartbeat IPC: 0.3603 cumulative IPC: 1.388 (Simulation time: 03 hr 37 min 40 sec)
Heartbeat CPU 0 instructions: 510000002 cycles: 365573603 heartbeat IPC: 0.3614 cumulative IPC: 1.307 (Simulation time: 03 hr 42 min 16 sec)
Heartbeat CPU 0 instructions: 520000003 cycles: 393353909 heartbeat IPC: 0.36 cumulative IPC: 1.238 (Simulation time: 03 hr 46 min 29 sec)
Heartbeat CPU 0 instructions: 530000004 cycles: 420911816 heartbeat IPC: 0.3629 cumulative IPC: 1.179 (Simulation time: 03 hr 50 min 40 sec)
Heartbeat CPU 0 instructions: 540000000 cycles: 448614876 heartbeat IPC: 0.361 cumulative IPC: 1.126 (Simulation time: 03 hr 55 min 04 sec)
Heartbeat CPU 0 instructions: 550000000 cycles: 476278500 heartbeat IPC: 0.3615 cumulative IPC: 1.081 (Simulation time: 03 hr 59 min 20 sec)
Heartbeat CPU 0 instructions: 560000002 cycles: 503927604 heartbeat IPC: 0.3617 cumulative IPC: 1.04 (Simulation time: 04 hr 05 min 30 sec)
Heartbeat CPU 0 instructions: 570000002 cycles: 531775019 heartbeat IPC: 0.3591 cumulative IPC: 1.004 (Simulation time: 04 hr 10 min 49 sec)
Heartbeat CPU 0 instructions: 580000000 cycles: 559514556 heartbeat IPC: 0.3605 cumulative IPC: 0.9709 (Simulation time: 04 hr 15 min 56 sec)
Heartbeat CPU 0 instructions: 590000004 cycles: 587230977 heartbeat IPC: 0.3608 cumulative IPC: 0.9414 (Simulation time: 04 hr 20 min 53 sec)
*** Reached end of trace: (0, "traces/l1l2l3cache.champsimtrace")
Heartbeat CPU 0 instructions: 600000001 cycles: 614977657 heartbeat IPC: 0.3604 cumulative IPC: 0.9146 (Simulation time: 04 hr 25 min 47 sec)
Heartbeat CPU 0 instructions: 610000004 cycles: 624850313 heartbeat IPC: 1.013 cumulative IPC: 0.9162 (Simulation time: 04 hr 27 min 38 sec)
Heartbeat CPU 0 instructions: 620000003 cycles: 640358952 heartbeat IPC: 0.6448 cumulative IPC: 0.9095 (Simulation time: 04 hr 30 min 21 sec)
Heartbeat CPU 0 instructions: 630000000 cycles: 655829505 heartbeat IPC: 0.6464 cumulative IPC: 0.9031 (Simulation time: 04 hr 32 min 59 sec)
Heartbeat CPU 0 instructions: 640000000 cycles: 663011095 heartbeat IPC: 1.392 cumulative IPC: 0.9085 (Simulation time: 04 hr 34 min 28 sec)
Heartbeat CPU 0 instructions: 650000001 cycles: 665511405 heartbeat IPC: 4 cumulative IPC: 0.9204 (Simulation time: 04 hr 35 min 20 sec)
Simulation finished CPU 0 instructions: 600000003 cycles: 651890805 cumulative IPC: 0.9204 (Simulation time: 04 hr 35 min 20 sec)
Simulation complete CPU 0 instructions: 600000003 cycles: 651890805 cumulative IPC: 0.9204 (Simulation time: 04 hr 35 min 20 sec)

ChampSim completed all CPUs

=== Simulation ===
CPU 0 runs traces/l1l2l3cache.champsimtrace
Region of Interest Statistics

CPU 0 cumulative IPC: 0.9204 instructions: 600000003 cycles: 651890805
CPU 0 Branch Prediction Accuracy: 99.99% MPKI: 0.01094 Average ROB Occupancy at Mispredict: 169.6
Branch type MPKI
BRANCH_DIRECT_JUMP: 8.5e-05
BRANCH_INDIRECT: 0.000237
BRANCH_CONDITIONAL: 0.0105
BRANCH_DIRECT_CALL: 5e-06
BRANCH_INDIRECT_CALL: 4.67e-05
BRANCH_RETURN: 3.67e-05

LLC TOTAL        ACCESS:    5043904 HIT:     930343 MISS:    4113561
LLC LOAD         ACCESS:    1954446 HIT:     183120 MISS:    1771326
LLC RFO          ACCESS:     561709 HIT:        867 MISS:     560842
LLC PREFETCH     ACCESS:    1954446 HIT:     181422 MISS:    1773024
LLC WRITE        ACCESS:     562058 HIT:     562026 MISS:         32
LLC TRANSLATION  ACCESS:      11245 HIT:       2908 MISS:       8337
LLC PREFETCH REQUESTED:    1954446 ISSUED:    1954446 USEFUL:     114740 USELESS:    1656710
LLC AVERAGE MISS LATENCY: 1024 cycles
cpu0_DTLB TOTAL        ACCESS:  124385932 HIT:  122370993 MISS:    2014939
cpu0_DTLB LOAD         ACCESS:  124385932 HIT:  122370993 MISS:    2014939
cpu0_DTLB RFO          ACCESS:          0 HIT:          0 MISS:          0
cpu0_DTLB PREFETCH     ACCESS:          0 HIT:          0 MISS:          0
cpu0_DTLB WRITE        ACCESS:          0 HIT:          0 MISS:          0
cpu0_DTLB TRANSLATION  ACCESS:          0 HIT:          0 MISS:          0
cpu0_DTLB PREFETCH REQUESTED:          0 ISSUED:          0 USEFUL:          0 USELESS:          0
cpu0_DTLB AVERAGE MISS LATENCY: 20.74 cycles
cpu0_ITLB TOTAL        ACCESS:       5075 HIT:       4834 MISS:        241
cpu0_ITLB LOAD         ACCESS:       5075 HIT:       4834 MISS:        241
cpu0_ITLB RFO          ACCESS:          0 HIT:          0 MISS:          0
cpu0_ITLB PREFETCH     ACCESS:          0 HIT:          0 MISS:          0
cpu0_ITLB WRITE        ACCESS:          0 HIT:          0 MISS:          0
cpu0_ITLB TRANSLATION  ACCESS:          0 HIT:          0 MISS:          0
cpu0_ITLB PREFETCH REQUESTED:          0 ISSUED:          0 USEFUL:          0 USELESS:          0
cpu0_ITLB AVERAGE MISS LATENCY: 252.9 cycles
cpu0_L1D TOTAL        ACCESS:  172254753 HIT:  160650658 MISS:   11604095
cpu0_L1D LOAD         ACCESS:   63929491 HIT:   61885227 MISS:    2044264
cpu0_L1D RFO          ACCESS:          0 HIT:          0 MISS:          0
cpu0_L1D PREFETCH     ACCESS:          0 HIT:          0 MISS:          0
cpu0_L1D WRITE        ACCESS:  107019769 HIT:   98206191 MISS:    8813578
cpu0_L1D TRANSLATION  ACCESS:    1305493 HIT:     559240 MISS:     746253
cpu0_L1D PREFETCH REQUESTED:          0 ISSUED:          0 USEFUL:          0 USELESS:          0
cpu0_L1D AVERAGE MISS LATENCY: 191.3 cycles
cpu0_L1I TOTAL        ACCESS:       5858 HIT:       3310 MISS:       2548
cpu0_L1I LOAD         ACCESS:       5858 HIT:       3310 MISS:       2548
cpu0_L1I RFO          ACCESS:          0 HIT:          0 MISS:          0
cpu0_L1I PREFETCH     ACCESS:          0 HIT:          0 MISS:          0
cpu0_L1I WRITE        ACCESS:          0 HIT:          0 MISS:          0
cpu0_L1I TRANSLATION  ACCESS:          0 HIT:          0 MISS:          0
cpu0_L1I PREFETCH REQUESTED:          0 ISSUED:          0 USEFUL:          0 USELESS:          0
cpu0_L1I AVERAGE MISS LATENCY: 241.9 cycles
cpu0_L2C TOTAL        ACCESS:    3905903 HIT:    1378488 MISS:    2527415
cpu0_L2C LOAD         ACCESS:    2009354 HIT:      54908 MISS:    1954446
cpu0_L2C RFO          ACCESS:     574545 HIT:      12836 MISS:     561709
cpu0_L2C PREFETCH     ACCESS:          0 HIT:          0 MISS:          0
cpu0_L2C WRITE        ACCESS:     575771 HIT:     575756 MISS:         15
cpu0_L2C TRANSLATION  ACCESS:     746233 HIT:     734988 MISS:      11245
cpu0_L2C PREFETCH REQUESTED:          0 ISSUED:          0 USEFUL:          0 USELESS:          0
cpu0_L2C AVERAGE MISS LATENCY: 901.2 cycles
cpu0_STLB TOTAL        ACCESS:    1982599 HIT:     677114 MISS:    1305485
cpu0_STLB LOAD         ACCESS:    1982599 HIT:     677114 MISS:    1305485
cpu0_STLB RFO          ACCESS:          0 HIT:          0 MISS:          0
cpu0_STLB PREFETCH     ACCESS:          0 HIT:          0 MISS:          0
cpu0_STLB WRITE        ACCESS:          0 HIT:          0 MISS:          0
cpu0_STLB TRANSLATION  ACCESS:          0 HIT:          0 MISS:          0
cpu0_STLB PREFETCH REQUESTED:          0 ISSUED:          0 USEFUL:          0 USELESS:          0
cpu0_STLB AVERAGE MISS LATENCY: 18.97 cycles

DRAM Statistics

Channel 0 RQ ROW_BUFFER_HIT:     115599
  ROW_BUFFER_MISS:    3993671
 AVG DBUS CONGESTED CYCLE: 3.973
WQ ROW_BUFFER_HIT: Channel 0 
  ROW_BUFFER_MISS:     170381
  FULL:     391566
