WARNING: physical memory size is smaller than virtual memory size.

*** ChampSim Multicore Out-of-Order Simulator ***
Warmup Instructions: 50000000
Simulation Instructions: 600000000
Number of CPUs: 1
Page size: 4096

Off-chip DRAM Size: 4 GiB Channels: 1 Width: 64-bit Data Race: 3200 MT/s
Heartbeat CPU 0 instructions: 10000000 cycles: 2565785 heartbeat IPC: 3.897 cumulative IPC: 3.897 (Simulation time: 00 hr 01 min 19 sec)
Heartbeat CPU 0 instructions: 20000000 cycles: 5131274 heartbeat IPC: 3.898 cumulative IPC: 3.898 (Simulation time: 00 hr 02 min 30 sec)
Heartbeat CPU 0 instructions: 30000000 cycles: 7631274 heartbeat IPC: 4 cumulative IPC: 3.931 (Simulation time: 00 hr 03 min 37 sec)
Heartbeat CPU 0 instructions: 40000000 cycles: 10131274 heartbeat IPC: 4 cumulative IPC: 3.948 (Simulation time: 00 hr 04 min 47 sec)
Heartbeat CPU 0 instructions: 50000000 cycles: 12631274 heartbeat IPC: 4 cumulative IPC: 3.958 (Simulation time: 00 hr 05 min 52 sec)
Warmup finished CPU 0 instructions: 50000000 cycles: 12631275 cumulative IPC: 3.958 (Simulation time: 00 hr 05 min 52 sec)
Warmup complete CPU 0 instructions: 50000000 cycles: 12631275 cumulative IPC: 3.958 (Simulation time: 00 hr 05 min 52 sec)
Heartbeat CPU 0 instructions: 60000000 cycles: 16058852 heartbeat IPC: 2.918 cumulative IPC: 2.918 (Simulation time: 00 hr 07 min 20 sec)
Heartbeat CPU 0 instructions: 70000000 cycles: 19488286 heartbeat IPC: 2.916 cumulative IPC: 2.917 (Simulation time: 00 hr 08 min 39 sec)
Heartbeat CPU 0 instructions: 80000004 cycles: 22914704 heartbeat IPC: 2.919 cumulative IPC: 2.917 (Simulation time: 00 hr 10 min 08 sec)
Heartbeat CPU 0 instructions: 90000000 cycles: 26342392 heartbeat IPC: 2.917 cumulative IPC: 2.917 (Simulation time: 00 hr 11 min 33 sec)
Heartbeat CPU 0 instructions: 100000003 cycles: 29773619 heartbeat IPC: 2.914 cumulative IPC: 2.917 (Simulation time: 00 hr 12 min 55 sec)
Heartbeat CPU 0 instructions: 110000000 cycles: 33199684 heartbeat IPC: 2.919 cumulative IPC: 2.917 (Simulation time: 00 hr 14 min 23 sec)
Heartbeat CPU 0 instructions: 120000001 cycles: 36624207 heartbeat IPC: 2.92 cumulative IPC: 2.918 (Simulation time: 00 hr 15 min 16 sec)
Heartbeat CPU 0 instructions: 130000001 cycles: 40050788 heartbeat IPC: 2.918 cumulative IPC: 2.918 (Simulation time: 00 hr 16 min 10 sec)
Heartbeat CPU 0 instructions: 140000002 cycles: 43477136 heartbeat IPC: 2.919 cumulative IPC: 2.918 (Simulation time: 00 hr 17 min 09 sec)
Heartbeat CPU 0 instructions: 150000000 cycles: 46902215 heartbeat IPC: 2.92 cumulative IPC: 2.918 (Simulation time: 00 hr 18 min 13 sec)
Heartbeat CPU 0 instructions: 160000002 cycles: 50328722 heartbeat IPC: 2.918 cumulative IPC: 2.918 (Simulation time: 00 hr 19 min 10 sec)
Heartbeat CPU 0 instructions: 170000000 cycles: 53756209 heartbeat IPC: 2.918 cumulative IPC: 2.918 (Simulation time: 00 hr 20 min 03 sec)
Heartbeat CPU 0 instructions: 180000004 cycles: 57182235 heartbeat IPC: 2.919 cumulative IPC: 2.918 (Simulation time: 00 hr 20 min 56 sec)
Heartbeat CPU 0 instructions: 190000001 cycles: 60608942 heartbeat IPC: 2.918 cumulative IPC: 2.918 (Simulation time: 00 hr 21 min 49 sec)
Heartbeat CPU 0 instructions: 200000001 cycles: 64034698 heartbeat IPC: 2.919 cumulative IPC: 2.918 (Simulation time: 00 hr 22 min 43 sec)
Heartbeat CPU 0 instructions: 210000004 cycles: 67460593 heartbeat IPC: 2.919 cumulative IPC: 2.918 (Simulation time: 00 hr 23 min 41 sec)
Heartbeat CPU 0 instructions: 220000002 cycles: 70888099 heartbeat IPC: 2.918 cumulative IPC: 2.918 (Simulation time: 00 hr 24 min 36 sec)
Heartbeat CPU 0 instructions: 230000001 cycles: 74321726 heartbeat IPC: 2.912 cumulative IPC: 2.918 (Simulation time: 00 hr 25 min 37 sec)
Heartbeat CPU 0 instructions: 240000003 cycles: 82912547 heartbeat IPC: 1.164 cumulative IPC: 2.703 (Simulation time: 00 hr 27 min 39 sec)
Heartbeat CPU 0 instructions: 250000003 cycles: 86346222 heartbeat IPC: 2.912 cumulative IPC: 2.713 (Simulation time: 00 hr 28 min 33 sec)
Heartbeat CPU 0 instructions: 260000000 cycles: 89772960 heartbeat IPC: 2.918 cumulative IPC: 2.722 (Simulation time: 00 hr 29 min 27 sec)
Heartbeat CPU 0 instructions: 270000004 cycles: 93198955 heartbeat IPC: 2.919 cumulative IPC: 2.731 (Simulation time: 00 hr 30 min 20 sec)
Heartbeat CPU 0 instructions: 280000000 cycles: 96626782 heartbeat IPC: 2.917 cumulative IPC: 2.738 (Simulation time: 00 hr 31 min 14 sec)
Heartbeat CPU 0 instructions: 290000002 cycles: 100054917 heartbeat IPC: 2.917 cumulative IPC: 2.745 (Simulation time: 00 hr 32 min 08 sec)
Heartbeat CPU 0 instructions: 300000004 cycles: 103478483 heartbeat IPC: 2.921 cumulative IPC: 2.752 (Simulation time: 00 hr 33 min 01 sec)
Heartbeat CPU 0 instructions: 310000002 cycles: 106906606 heartbeat IPC: 2.917 cumulative IPC: 2.758 (Simulation time: 00 hr 33 min 54 sec)
Heartbeat CPU 0 instructions: 320000000 cycles: 110334416 heartbeat IPC: 2.917 cumulative IPC: 2.763 (Simulation time: 00 hr 34 min 48 sec)
Heartbeat CPU 0 instructions: 330000004 cycles: 113761165 heartbeat IPC: 2.918 cumulative IPC: 2.769 (Simulation time: 00 hr 35 min 42 sec)
Heartbeat CPU 0 instructions: 340000000 cycles: 117188422 heartbeat IPC: 2.918 cumulative IPC: 2.774 (Simulation time: 00 hr 36 min 38 sec)
Heartbeat CPU 0 instructions: 350000003 cycles: 120617343 heartbeat IPC: 2.916 cumulative IPC: 2.778 (Simulation time: 00 hr 37 min 33 sec)
Heartbeat CPU 0 instructions: 360000003 cycles: 124044991 heartbeat IPC: 2.917 cumulative IPC: 2.782 (Simulation time: 00 hr 38 min 31 sec)
Heartbeat CPU 0 instructions: 370000004 cycles: 127471383 heartbeat IPC: 2.919 cumulative IPC: 2.786 (Simulation time: 00 hr 39 min 28 sec)
Heartbeat CPU 0 instructions: 380000003 cycles: 130896917 heartbeat IPC: 2.919 cumulative IPC: 2.79 (Simulation time: 00 hr 40 min 24 sec)
Heartbeat CPU 0 instructions: 390000000 cycles: 134317896 heartbeat IPC: 2.923 cumulative IPC: 2.794 (Simulation time: 00 hr 41 min 21 sec)
Heartbeat CPU 0 instructions: 400000002 cycles: 137745276 heartbeat IPC: 2.918 cumulative IPC: 2.797 (Simulation time: 00 hr 42 min 17 sec)
Heartbeat CPU 0 instructions: 410000003 cycles: 141172772 heartbeat IPC: 2.918 cumulative IPC: 2.801 (Simulation time: 00 hr 43 min 12 sec)
Heartbeat CPU 0 instructions: 420000001 cycles: 144600600 heartbeat IPC: 2.917 cumulative IPC: 2.804 (Simulation time: 00 hr 44 min 06 sec)
Heartbeat CPU 0 instructions: 430000001 cycles: 148029350 heartbeat IPC: 2.917 cumulative IPC: 2.807 (Simulation time: 00 hr 45 min 00 sec)
Heartbeat CPU 0 instructions: 440000002 cycles: 151453910 heartbeat IPC: 2.92 cumulative IPC: 2.809 (Simulation time: 00 hr 45 min 59 sec)
Heartbeat CPU 0 instructions: 450000001 cycles: 154739701 heartbeat IPC: 3.043 cumulative IPC: 2.815 (Simulation time: 00 hr 47 min 03 sec)
Heartbeat CPU 0 instructions: 460000002 cycles: 163324627 heartbeat IPC: 1.165 cumulative IPC: 2.721 (Simulation time: 00 hr 49 min 05 sec)
Heartbeat CPU 0 instructions: 470000004 cycles: 166747937 heartbeat IPC: 2.921 cumulative IPC: 2.725 (Simulation time: 00 hr 50 min 03 sec)
Heartbeat CPU 0 instructions: 480000000 cycles: 170176164 heartbeat IPC: 2.917 cumulative IPC: 2.729 (Simulation time: 00 hr 51 min 00 sec)
Heartbeat CPU 0 instructions: 490000000 cycles: 173601539 heartbeat IPC: 2.919 cumulative IPC: 2.733 (Simulation time: 00 hr 51 min 56 sec)
Heartbeat CPU 0 instructions: 500000002 cycles: 177028301 heartbeat IPC: 2.918 cumulative IPC: 2.737 (Simulation time: 00 hr 52 min 58 sec)
Heartbeat CPU 0 instructions: 510000001 cycles: 180457234 heartbeat IPC: 2.916 cumulative IPC: 2.741 (Simulation time: 00 hr 54 min 03 sec)
Heartbeat CPU 0 instructions: 520000003 cycles: 183882565 heartbeat IPC: 2.919 cumulative IPC: 2.745 (Simulation time: 00 hr 55 min 08 sec)
Heartbeat CPU 0 instructions: 530000002 cycles: 187306435 heartbeat IPC: 2.921 cumulative IPC: 2.748 (Simulation time: 00 hr 56 min 11 sec)
Heartbeat CPU 0 instructions: 540000000 cycles: 190735134 heartbeat IPC: 2.917 cumulative IPC: 2.751 (Simulation time: 00 hr 57 min 10 sec)
Heartbeat CPU 0 instructions: 550000000 cycles: 194161375 heartbeat IPC: 2.919 cumulative IPC: 2.754 (Simulation time: 00 hr 58 min 08 sec)
Heartbeat CPU 0 instructions: 560000001 cycles: 197586124 heartbeat IPC: 2.92 cumulative IPC: 2.757 (Simulation time: 00 hr 59 min 04 sec)
Heartbeat CPU 0 instructions: 570000001 cycles: 201011606 heartbeat IPC: 2.919 cumulative IPC: 2.76 (Simulation time: 01 hr 00 min 00 sec)
Heartbeat CPU 0 instructions: 580000000 cycles: 204441395 heartbeat IPC: 2.916 cumulative IPC: 2.763 (Simulation time: 01 hr 00 min 58 sec)
Heartbeat CPU 0 instructions: 590000003 cycles: 207867780 heartbeat IPC: 2.919 cumulative IPC: 2.766 (Simulation time: 01 hr 02 min 02 sec)
*** Reached end of trace: (0, "traces/l1l2cache.champsimtrace")
Heartbeat CPU 0 instructions: 600000001 cycles: 211295916 heartbeat IPC: 2.917 cumulative IPC: 2.768 (Simulation time: 01 hr 03 min 01 sec)
Heartbeat CPU 0 instructions: 610000000 cycles: 214426519 heartbeat IPC: 3.194 cumulative IPC: 2.775 (Simulation time: 01 hr 04 min 01 sec)
Heartbeat CPU 0 instructions: 620000004 cycles: 217175412 heartbeat IPC: 3.638 cumulative IPC: 2.787 (Simulation time: 01 hr 05 min 03 sec)
Heartbeat CPU 0 instructions: 630000004 cycles: 220598488 heartbeat IPC: 2.921 cumulative IPC: 2.789 (Simulation time: 01 hr 06 min 06 sec)
Heartbeat CPU 0 instructions: 640000000 cycles: 224023416 heartbeat IPC: 2.92 cumulative IPC: 2.791 (Simulation time: 01 hr 07 min 08 sec)
Heartbeat CPU 0 instructions: 650000004 cycles: 227452820 heartbeat IPC: 2.916 cumulative IPC: 2.793 (Simulation time: 01 hr 08 min 05 sec)
Simulation finished CPU 0 instructions: 600000004 cycles: 214821546 cumulative IPC: 2.793 (Simulation time: 01 hr 08 min 05 sec)
Simulation complete CPU 0 instructions: 600000004 cycles: 214821546 cumulative IPC: 2.793 (Simulation time: 01 hr 08 min 05 sec)

ChampSim completed all CPUs

=== Simulation ===
CPU 0 runs traces/l1l2cache.champsimtrace
Region of Interest Statistics

CPU 0 cumulative IPC: 2.793 instructions: 600000004 cycles: 214821546
CPU 0 Branch Prediction Accuracy: 93.04% MPKI: 5.913 Average ROB Occupancy at Mispredict: 67.85
Branch type MPKI
BRANCH_DIRECT_JUMP: 9.5e-05
BRANCH_INDIRECT: 0.000282
BRANCH_CONDITIONAL: 5.91
BRANCH_DIRECT_CALL: 3.33e-06
BRANCH_INDIRECT_CALL: 4.83e-05
BRANCH_RETURN: 3.33e-05

LLC TOTAL        ACCESS:     259668 HIT:     137173 MISS:     122495
LLC LOAD         ACCESS:      59445 HIT:      34748 MISS:      24697
LLC RFO          ACCESS:      99913 HIT:      48391 MISS:      51522
LLC PREFETCH     ACCESS:          0 HIT:          0 MISS:          0
LLC WRITE        ACCESS:     100305 HIT:      54034 MISS:      46271
LLC TRANSLATION  ACCESS:          5 HIT:          0 MISS:          5
LLC PREFETCH REQUESTED:          0 ISSUED:          0 USEFUL:          0 USELESS:          0
LLC AVERAGE MISS LATENCY: 333 cycles
cpu0_DTLB TOTAL        ACCESS:   82374994 HIT:   82364155 MISS:      10839
cpu0_DTLB LOAD         ACCESS:   82374994 HIT:   82364155 MISS:      10839
cpu0_DTLB RFO          ACCESS:          0 HIT:          0 MISS:          0
cpu0_DTLB PREFETCH     ACCESS:          0 HIT:          0 MISS:          0
cpu0_DTLB WRITE        ACCESS:          0 HIT:          0 MISS:          0
cpu0_DTLB TRANSLATION  ACCESS:          0 HIT:          0 MISS:          0
cpu0_DTLB PREFETCH REQUESTED:          0 ISSUED:          0 USEFUL:          0 USELESS:          0
cpu0_DTLB AVERAGE MISS LATENCY: 5.894 cycles
cpu0_ITLB TOTAL        ACCESS:       5551 HIT:       5332 MISS:        219
cpu0_ITLB LOAD         ACCESS:       5551 HIT:       5332 MISS:        219
cpu0_ITLB RFO          ACCESS:          0 HIT:          0 MISS:          0
cpu0_ITLB PREFETCH     ACCESS:          0 HIT:          0 MISS:          0
cpu0_ITLB WRITE        ACCESS:          0 HIT:          0 MISS:          0
cpu0_ITLB TRANSLATION  ACCESS:          0 HIT:          0 MISS:          0
cpu0_ITLB PREFETCH REQUESTED:          0 ISSUED:          0 USEFUL:          0 USELESS:          0
cpu0_ITLB AVERAGE MISS LATENCY: 6.416 cycles
cpu0_L1D TOTAL        ACCESS:  104642399 HIT:  102845813 MISS:    1796586
cpu0_L1D LOAD         ACCESS:   45415186 HIT:   44913996 MISS:     501190
cpu0_L1D RFO          ACCESS:          0 HIT:          0 MISS:          0
cpu0_L1D PREFETCH     ACCESS:          0 HIT:          0 MISS:          0
cpu0_L1D WRITE        ACCESS:   59226955 HIT:   57931564 MISS:    1295391
cpu0_L1D TRANSLATION  ACCESS:        258 HIT:        253 MISS:          5
cpu0_L1D PREFETCH REQUESTED:          0 ISSUED:          0 USEFUL:          0 USELESS:          0
cpu0_L1D AVERAGE MISS LATENCY: 21.38 cycles
cpu0_L1I TOTAL        ACCESS:       6314 HIT:       4056 MISS:       2258
cpu0_L1I LOAD         ACCESS:       6314 HIT:       4056 MISS:       2258
cpu0_L1I RFO          ACCESS:          0 HIT:          0 MISS:          0
cpu0_L1I PREFETCH     ACCESS:          0 HIT:          0 MISS:          0
cpu0_L1I WRITE        ACCESS:          0 HIT:          0 MISS:          0
cpu0_L1I TRANSLATION  ACCESS:          0 HIT:          0 MISS:          0
cpu0_L1I PREFETCH REQUESTED:          0 ISSUED:          0 USEFUL:          0 USELESS:          0
cpu0_L1I AVERAGE MISS LATENCY: 114.7 cycles
cpu0_L2C TOTAL        ACCESS:     265754 HIT:     106371 MISS:     159383
cpu0_L2C LOAD         ACCESS:      63736 HIT:       4291 MISS:      59445
cpu0_L2C RFO          ACCESS:     100745 HIT:        832 MISS:      99913
cpu0_L2C PREFETCH     ACCESS:          0 HIT:          0 MISS:          0
cpu0_L2C WRITE        ACCESS:     101268 HIT:     101248 MISS:         20
cpu0_L2C TRANSLATION  ACCESS:          5 HIT:          0 MISS:          5
cpu0_L2C PREFETCH REQUESTED:          0 ISSUED:          0 USEFUL:          0 USELESS:          0
cpu0_L2C AVERAGE MISS LATENCY: 276.4 cycles
cpu0_STLB TOTAL        ACCESS:       3914 HIT:       3657 MISS:        257
cpu0_STLB LOAD         ACCESS:       3914 HIT:       3657 MISS:        257
cpu0_STLB RFO          ACCESS:          0 HIT:          0 MISS:          0
cpu0_STLB PREFETCH     ACCESS:          0 HIT:          0 MISS:          0
cpu0_STLB WRITE        ACCESS:          0 HIT:          0 MISS:          0
cpu0_STLB TRANSLATION  ACCESS:          0 HIT:          0 MISS:          0
cpu0_STLB PREFETCH REQUESTED:          0 ISSUED:          0 USEFUL:          0 USELESS:          0
cpu0_STLB AVERAGE MISS LATENCY: 218.4 cycles

DRAM Statistics

Channel 0 RQ ROW_BUFFER_HIT:      37261
  ROW_BUFFER_MISS:      38885
 AVG DBUS CONGESTED CYCLE: 3.941
WQ ROW_BUFFER_HIT: Channel 0 
  ROW_BUFFER_MISS:      27765
  FULL:      18952
