WARNING: physical memory size is smaller than virtual memory size.

*** ChampSim Multicore Out-of-Order Simulator ***
Warmup Instructions: 50000000
Simulation Instructions: 600000000
Number of CPUs: 1
Page size: 4096

Off-chip DRAM Size: 4 GiB Channels: 1 Width: 64-bit Data Race: 3200 MT/s
Heartbeat CPU 0 instructions: 10000004 cycles: 2777663 heartbeat IPC: 3.6 cumulative IPC: 3.6 (Simulation time: 00 hr 01 min 01 sec)
Heartbeat CPU 0 instructions: 20000001 cycles: 5634805 heartbeat IPC: 3.5 cumulative IPC: 3.549 (Simulation time: 00 hr 01 min 57 sec)
Heartbeat CPU 0 instructions: 30000000 cycles: 8491948 heartbeat IPC: 3.5 cumulative IPC: 3.533 (Simulation time: 00 hr 02 min 53 sec)
Heartbeat CPU 0 instructions: 40000003 cycles: 11120601 heartbeat IPC: 3.804 cumulative IPC: 3.597 (Simulation time: 00 hr 03 min 52 sec)
Heartbeat CPU 0 instructions: 50000003 cycles: 13620601 heartbeat IPC: 4 cumulative IPC: 3.671 (Simulation time: 00 hr 04 min 46 sec)
Warmup finished CPU 0 instructions: 50000003 cycles: 13620602 cumulative IPC: 3.671 (Simulation time: 00 hr 04 min 46 sec)
Warmup complete CPU 0 instructions: 50000003 cycles: 13620602 cumulative IPC: 3.671 (Simulation time: 00 hr 04 min 46 sec)
Heartbeat CPU 0 instructions: 60000002 cycles: 16347845 heartbeat IPC: 3.667 cumulative IPC: 3.667 (Simulation time: 00 hr 06 min 15 sec)
Heartbeat CPU 0 instructions: 70000001 cycles: 19075145 heartbeat IPC: 3.667 cumulative IPC: 3.667 (Simulation time: 00 hr 08 min 08 sec)
Heartbeat CPU 0 instructions: 80000001 cycles: 21802387 heartbeat IPC: 3.667 cumulative IPC: 3.667 (Simulation time: 00 hr 10 min 35 sec)
Heartbeat CPU 0 instructions: 90000000 cycles: 24530553 heartbeat IPC: 3.665 cumulative IPC: 3.666 (Simulation time: 00 hr 12 min 45 sec)
Heartbeat CPU 0 instructions: 100000003 cycles: 27257796 heartbeat IPC: 3.667 cumulative IPC: 3.666 (Simulation time: 00 hr 14 min 53 sec)
Heartbeat CPU 0 instructions: 110000004 cycles: 29985099 heartbeat IPC: 3.667 cumulative IPC: 3.666 (Simulation time: 00 hr 16 min 58 sec)
Heartbeat CPU 0 instructions: 120000003 cycles: 32712369 heartbeat IPC: 3.667 cumulative IPC: 3.667 (Simulation time: 00 hr 19 min 02 sec)
Heartbeat CPU 0 instructions: 130000003 cycles: 35439642 heartbeat IPC: 3.667 cumulative IPC: 3.667 (Simulation time: 00 hr 22 min 01 sec)
Heartbeat CPU 0 instructions: 140000002 cycles: 38167824 heartbeat IPC: 3.665 cumulative IPC: 3.666 (Simulation time: 00 hr 24 min 32 sec)
Heartbeat CPU 0 instructions: 150000000 cycles: 40895067 heartbeat IPC: 3.667 cumulative IPC: 3.666 (Simulation time: 00 hr 27 min 01 sec)
Heartbeat CPU 0 instructions: 160000001 cycles: 43622371 heartbeat IPC: 3.667 cumulative IPC: 3.666 (Simulation time: 00 hr 29 min 09 sec)
Heartbeat CPU 0 instructions: 170000004 cycles: 46349612 heartbeat IPC: 3.667 cumulative IPC: 3.666 (Simulation time: 00 hr 31 min 24 sec)
Heartbeat CPU 0 instructions: 180000000 cycles: 49078632 heartbeat IPC: 3.664 cumulative IPC: 3.666 (Simulation time: 00 hr 34 min 04 sec)
Heartbeat CPU 0 instructions: 190000004 cycles: 51805918 heartbeat IPC: 3.667 cumulative IPC: 3.666 (Simulation time: 00 hr 36 min 32 sec)
Heartbeat CPU 0 instructions: 200000002 cycles: 54533176 heartbeat IPC: 3.667 cumulative IPC: 3.666 (Simulation time: 00 hr 38 min 44 sec)
Heartbeat CPU 0 instructions: 210000003 cycles: 57260479 heartbeat IPC: 3.667 cumulative IPC: 3.666 (Simulation time: 00 hr 40 min 57 sec)
Heartbeat CPU 0 instructions: 220000001 cycles: 59987721 heartbeat IPC: 3.667 cumulative IPC: 3.666 (Simulation time: 00 hr 43 min 45 sec)
Heartbeat CPU 0 instructions: 230000002 cycles: 62716103 heartbeat IPC: 3.665 cumulative IPC: 3.666 (Simulation time: 00 hr 45 min 58 sec)
Heartbeat CPU 0 instructions: 240000003 cycles: 65443345 heartbeat IPC: 3.667 cumulative IPC: 3.666 (Simulation time: 00 hr 48 min 35 sec)
Heartbeat CPU 0 instructions: 250000004 cycles: 68170648 heartbeat IPC: 3.667 cumulative IPC: 3.666 (Simulation time: 00 hr 51 min 17 sec)
Heartbeat CPU 0 instructions: 260000000 cycles: 70897931 heartbeat IPC: 3.667 cumulative IPC: 3.666 (Simulation time: 00 hr 53 min 26 sec)
Heartbeat CPU 0 instructions: 270000003 cycles: 73625549 heartbeat IPC: 3.666 cumulative IPC: 3.666 (Simulation time: 00 hr 55 min 38 sec)
Heartbeat CPU 0 instructions: 280000001 cycles: 76352850 heartbeat IPC: 3.667 cumulative IPC: 3.666 (Simulation time: 00 hr 57 min 53 sec)
Heartbeat CPU 0 instructions: 290000000 cycles: 79080091 heartbeat IPC: 3.667 cumulative IPC: 3.666 (Simulation time: 01 hr 00 min 52 sec)
Heartbeat CPU 0 instructions: 300000001 cycles: 81807394 heartbeat IPC: 3.667 cumulative IPC: 3.666 (Simulation time: 01 hr 03 min 28 sec)
Heartbeat CPU 0 instructions: 310000000 cycles: 84534636 heartbeat IPC: 3.667 cumulative IPC: 3.666 (Simulation time: 01 hr 05 min 53 sec)
Heartbeat CPU 0 instructions: 320000000 cycles: 87262313 heartbeat IPC: 3.666 cumulative IPC: 3.666 (Simulation time: 01 hr 08 min 03 sec)
Heartbeat CPU 0 instructions: 330000001 cycles: 89989609 heartbeat IPC: 3.667 cumulative IPC: 3.666 (Simulation time: 01 hr 10 min 08 sec)
Heartbeat CPU 0 instructions: 340000002 cycles: 92716856 heartbeat IPC: 3.667 cumulative IPC: 3.666 (Simulation time: 01 hr 13 min 05 sec)
Heartbeat CPU 0 instructions: 350000003 cycles: 95444159 heartbeat IPC: 3.667 cumulative IPC: 3.666 (Simulation time: 01 hr 15 min 25 sec)
Heartbeat CPU 0 instructions: 360000001 cycles: 98172589 heartbeat IPC: 3.665 cumulative IPC: 3.666 (Simulation time: 01 hr 17 min 45 sec)
Heartbeat CPU 0 instructions: 370000002 cycles: 100899893 heartbeat IPC: 3.667 cumulative IPC: 3.666 (Simulation time: 01 hr 19 min 51 sec)
Heartbeat CPU 0 instructions: 380000001 cycles: 103627147 heartbeat IPC: 3.667 cumulative IPC: 3.666 (Simulation time: 01 hr 21 min 53 sec)
Heartbeat CPU 0 instructions: 390000004 cycles: 106354436 heartbeat IPC: 3.667 cumulative IPC: 3.666 (Simulation time: 01 hr 24 min 46 sec)
Heartbeat CPU 0 instructions: 400000000 cycles: 109081736 heartbeat IPC: 3.667 cumulative IPC: 3.666 (Simulation time: 01 hr 27 min 24 sec)
Heartbeat CPU 0 instructions: 410000003 cycles: 111809485 heartbeat IPC: 3.666 cumulative IPC: 3.666 (Simulation time: 01 hr 29 min 44 sec)
Heartbeat CPU 0 instructions: 420000003 cycles: 119394240 heartbeat IPC: 1.318 cumulative IPC: 3.498 (Simulation time: 01 hr 34 min 13 sec)
Heartbeat CPU 0 instructions: 430000002 cycles: 138444368 heartbeat IPC: 0.5249 cumulative IPC: 3.044 (Simulation time: 01 hr 44 min 50 sec)
Heartbeat CPU 0 instructions: 440000004 cycles: 157484169 heartbeat IPC: 0.5252 cumulative IPC: 2.711 (Simulation time: 01 hr 55 min 15 sec)
Heartbeat CPU 0 instructions: 450000000 cycles: 176534333 heartbeat IPC: 0.5249 cumulative IPC: 2.455 (Simulation time: 02 hr 05 min 46 sec)
Heartbeat CPU 0 instructions: 460000002 cycles: 195497373 heartbeat IPC: 0.5273 cumulative IPC: 2.254 (Simulation time: 02 hr 16 min 23 sec)
Heartbeat CPU 0 instructions: 470000003 cycles: 214531805 heartbeat IPC: 0.5254 cumulative IPC: 2.09 (Simulation time: 02 hr 27 min 07 sec)
Heartbeat CPU 0 instructions: 480000003 cycles: 233530911 heartbeat IPC: 0.5263 cumulative IPC: 1.955 (Simulation time: 02 hr 38 min 18 sec)
Heartbeat CPU 0 instructions: 490000004 cycles: 252530225 heartbeat IPC: 0.5263 cumulative IPC: 1.842 (Simulation time: 02 hr 49 min 31 sec)
Heartbeat CPU 0 instructions: 500000003 cycles: 271560242 heartbeat IPC: 0.5255 cumulative IPC: 1.745 (Simulation time: 03 hr 00 min 30 sec)
Heartbeat CPU 0 instructions: 510000002 cycles: 290566136 heartbeat IPC: 0.5262 cumulative IPC: 1.661 (Simulation time: 03 hr 11 min 30 sec)
Heartbeat CPU 0 instructions: 520000003 cycles: 309587389 heartbeat IPC: 0.5257 cumulative IPC: 1.588 (Simulation time: 03 hr 22 min 56 sec)
Heartbeat CPU 0 instructions: 530000004 cycles: 328540429 heartbeat IPC: 0.5276 cumulative IPC: 1.524 (Simulation time: 03 hr 31 min 50 sec)
Heartbeat CPU 0 instructions: 540000004 cycles: 347510550 heartbeat IPC: 0.5271 cumulative IPC: 1.468 (Simulation time: 03 hr 36 min 00 sec)
Heartbeat CPU 0 instructions: 550000000 cycles: 366551691 heartbeat IPC: 0.5252 cumulative IPC: 1.417 (Simulation time: 03 hr 39 min 00 sec)
Heartbeat CPU 0 instructions: 560000002 cycles: 385560745 heartbeat IPC: 0.5261 cumulative IPC: 1.371 (Simulation time: 03 hr 42 min 06 sec)
Heartbeat CPU 0 instructions: 570000002 cycles: 404579182 heartbeat IPC: 0.5258 cumulative IPC: 1.33 (Simulation time: 03 hr 45 min 31 sec)
Heartbeat CPU 0 instructions: 580000004 cycles: 423613377 heartbeat IPC: 0.5254 cumulative IPC: 1.293 (Simulation time: 03 hr 48 min 50 sec)
Heartbeat CPU 0 instructions: 590000000 cycles: 442634876 heartbeat IPC: 0.5257 cumulative IPC: 1.259 (Simulation time: 03 hr 52 min 02 sec)
*** Reached end of trace: (0, "traces/l1l2l3cache.champsimtrace")
Heartbeat CPU 0 instructions: 600000000 cycles: 461647671 heartbeat IPC: 0.526 cumulative IPC: 1.228 (Simulation time: 03 hr 55 min 00 sec)
Heartbeat CPU 0 instructions: 610000000 cycles: 470548688 heartbeat IPC: 1.123 cumulative IPC: 1.226 (Simulation time: 03 hr 56 min 30 sec)
Heartbeat CPU 0 instructions: 620000003 cycles: 486012616 heartbeat IPC: 0.6467 cumulative IPC: 1.207 (Simulation time: 03 hr 58 min 55 sec)
Heartbeat CPU 0 instructions: 630000000 cycles: 501454100 heartbeat IPC: 0.6476 cumulative IPC: 1.189 (Simulation time: 04 hr 01 min 33 sec)
Heartbeat CPU 0 instructions: 640000000 cycles: 508772701 heartbeat IPC: 1.366 cumulative IPC: 1.192 (Simulation time: 04 hr 02 min 53 sec)
Heartbeat CPU 0 instructions: 650000003 cycles: 511499973 heartbeat IPC: 3.667 cumulative IPC: 1.205 (Simulation time: 04 hr 03 min 34 sec)
Simulation finished CPU 0 instructions: 600000000 cycles: 497879372 cumulative IPC: 1.205 (Simulation time: 04 hr 03 min 34 sec)
Simulation complete CPU 0 instructions: 600000000 cycles: 497879372 cumulative IPC: 1.205 (Simulation time: 04 hr 03 min 34 sec)

ChampSim completed all CPUs

=== Simulation ===
CPU 0 runs traces/l1l2l3cache.champsimtrace
Region of Interest Statistics

CPU 0 cumulative IPC: 1.205 instructions: 600000000 cycles: 497879372
CPU 0 Branch Prediction Accuracy: 99.34% MPKI: 1.413 Average ROB Occupancy at Mispredict: 143.3
Branch type MPKI
BRANCH_DIRECT_JUMP: 8.5e-05
BRANCH_INDIRECT: 0.000237
BRANCH_CONDITIONAL: 1.41
BRANCH_DIRECT_CALL: 5e-06
BRANCH_INDIRECT_CALL: 4.67e-05
BRANCH_RETURN: 3.67e-05

LLC TOTAL        ACCESS:    3089469 HIT:     246394 MISS:    2843075
LLC LOAD         ACCESS:    1954445 HIT:     157553 MISS:    1796892
LLC RFO          ACCESS:     561712 HIT:      43754 MISS:     517958
LLC PREFETCH     ACCESS:          0 HIT:          0 MISS:          0
LLC WRITE        ACCESS:     562066 HIT:      44561 MISS:     517505
LLC TRANSLATION  ACCESS:      11246 HIT:        526 MISS:      10720
LLC PREFETCH REQUESTED:          0 ISSUED:          0 USEFUL:          0 USELESS:          0
LLC AVERAGE MISS LATENCY: 571.9 cycles
cpu0_DTLB TOTAL        ACCESS:  131752403 HIT:  129737575 MISS:    2014828
cpu0_DTLB LOAD         ACCESS:  131752403 HIT:  129737575 MISS:    2014828
cpu0_DTLB RFO          ACCESS:          0 HIT:          0 MISS:          0
cpu0_DTLB PREFETCH     ACCESS:          0 HIT:          0 MISS:          0
cpu0_DTLB WRITE        ACCESS:          0 HIT:          0 MISS:          0
cpu0_DTLB TRANSLATION  ACCESS:          0 HIT:          0 MISS:          0
cpu0_DTLB PREFETCH REQUESTED:          0 ISSUED:          0 USEFUL:          0 USELESS:          0
cpu0_DTLB AVERAGE MISS LATENCY: 20.22 cycles
cpu0_ITLB TOTAL        ACCESS:       4976 HIT:       4753 MISS:        223
cpu0_ITLB LOAD         ACCESS:       4976 HIT:       4753 MISS:        223
cpu0_ITLB RFO          ACCESS:          0 HIT:          0 MISS:          0
cpu0_ITLB PREFETCH     ACCESS:          0 HIT:          0 MISS:          0
cpu0_ITLB WRITE        ACCESS:          0 HIT:          0 MISS:          0
cpu0_ITLB TRANSLATION  ACCESS:          0 HIT:          0 MISS:          0
cpu0_ITLB PREFETCH REQUESTED:          0 ISSUED:          0 USEFUL:          0 USELESS:          0
cpu0_ITLB AVERAGE MISS LATENCY: 78.81 cycles
cpu0_L1D TOTAL        ACCESS:  179302006 HIT:  168039784 MISS:   11262222
cpu0_L1D LOAD         ACCESS:   70978511 HIT:   68939222 MISS:    2039289
cpu0_L1D RFO          ACCESS:          0 HIT:          0 MISS:          0
cpu0_L1D PREFETCH     ACCESS:          0 HIT:          0 MISS:          0
cpu0_L1D WRITE        ACCESS:  107018003 HIT:   98541293 MISS:    8476710
cpu0_L1D TRANSLATION  ACCESS:    1305492 HIT:     559269 MISS:     746223
cpu0_L1D PREFETCH REQUESTED:          0 ISSUED:          0 USEFUL:          0 USELESS:          0
cpu0_L1D AVERAGE MISS LATENCY: 144 cycles
cpu0_L1I TOTAL        ACCESS:       5679 HIT:       3423 MISS:       2256
cpu0_L1I LOAD         ACCESS:       5679 HIT:       3423 MISS:       2256
cpu0_L1I RFO          ACCESS:          0 HIT:          0 MISS:          0
cpu0_L1I PREFETCH     ACCESS:          0 HIT:          0 MISS:          0
cpu0_L1I WRITE        ACCESS:          0 HIT:          0 MISS:          0
cpu0_L1I TRANSLATION  ACCESS:          0 HIT:          0 MISS:          0
cpu0_L1I PREFETCH REQUESTED:          0 ISSUED:          0 USEFUL:          0 USELESS:          0
cpu0_L1I AVERAGE MISS LATENCY: 151.1 cycles
cpu0_L2C TOTAL        ACCESS:    3903789 HIT:    1376368 MISS:    2527421
cpu0_L2C LOAD         ACCESS:    2009351 HIT:      54906 MISS:    1954445
cpu0_L2C RFO          ACCESS:     573555 HIT:      11843 MISS:     561712
cpu0_L2C PREFETCH     ACCESS:          0 HIT:          0 MISS:          0
cpu0_L2C WRITE        ACCESS:     574682 HIT:     574664 MISS:         18
cpu0_L2C TRANSLATION  ACCESS:     746201 HIT:     734955 MISS:      11246
cpu0_L2C PREFETCH REQUESTED:          0 ISSUED:          0 USEFUL:          0 USELESS:          0
cpu0_L2C AVERAGE MISS LATENCY: 664.3 cycles
cpu0_STLB TOTAL        ACCESS:    1982662 HIT:     677178 MISS:    1305484
cpu0_STLB LOAD         ACCESS:    1982662 HIT:     677178 MISS:    1305484
cpu0_STLB RFO          ACCESS:          0 HIT:          0 MISS:          0
cpu0_STLB PREFETCH     ACCESS:          0 HIT:          0 MISS:          0
cpu0_STLB WRITE        ACCESS:          0 HIT:          0 MISS:          0
cpu0_STLB TRANSLATION  ACCESS:          0 HIT:          0 MISS:          0
cpu0_STLB PREFETCH REQUESTED:          0 ISSUED:          0 USEFUL:          0 USELESS:          0
cpu0_STLB AVERAGE MISS LATENCY: 18.13 cycles

DRAM Statistics

Channel 0 RQ ROW_BUFFER_HIT:      87509
  ROW_BUFFER_MISS:    2237819
 AVG DBUS CONGESTED CYCLE: 3.945
WQ ROW_BUFFER_HIT: Channel 0 
  ROW_BUFFER_MISS:     175253
  FULL:     342760
