WARNING: physical memory size is smaller than virtual memory size.

*** ChampSim Multicore Out-of-Order Simulator ***
Warmup Instructions: 50000000
Simulation Instructions: 600000000
Number of CPUs: 1
Page size: 4096

Off-chip DRAM Size: 4 GiB Channels: 1 Width: 64-bit Data Race: 3200 MT/s
Heartbeat CPU 0 instructions: 10000000 cycles: 2565785 heartbeat IPC: 3.897 cumulative IPC: 3.897 (Simulation time: 00 hr 00 min 46 sec)
Heartbeat CPU 0 instructions: 20000000 cycles: 5131274 heartbeat IPC: 3.898 cumulative IPC: 3.898 (Simulation time: 00 hr 01 min 32 sec)
Heartbeat CPU 0 instructions: 30000000 cycles: 7631274 heartbeat IPC: 4 cumulative IPC: 3.931 (Simulation time: 00 hr 02 min 20 sec)
Heartbeat CPU 0 instructions: 40000000 cycles: 10131274 heartbeat IPC: 4 cumulative IPC: 3.948 (Simulation time: 00 hr 03 min 06 sec)
Heartbeat CPU 0 instructions: 50000000 cycles: 12631274 heartbeat IPC: 4 cumulative IPC: 3.958 (Simulation time: 00 hr 03 min 49 sec)
Warmup finished CPU 0 instructions: 50000000 cycles: 12631275 cumulative IPC: 3.958 (Simulation time: 00 hr 03 min 49 sec)
Warmup complete CPU 0 instructions: 50000000 cycles: 12631275 cumulative IPC: 3.958 (Simulation time: 00 hr 03 min 49 sec)
Heartbeat CPU 0 instructions: 60000000 cycles: 16058852 heartbeat IPC: 2.918 cumulative IPC: 2.918 (Simulation time: 00 hr 04 min 46 sec)
Heartbeat CPU 0 instructions: 70000000 cycles: 19488286 heartbeat IPC: 2.916 cumulative IPC: 2.917 (Simulation time: 00 hr 05 min 40 sec)
Heartbeat CPU 0 instructions: 80000004 cycles: 22914704 heartbeat IPC: 2.919 cumulative IPC: 2.917 (Simulation time: 00 hr 06 min 43 sec)
Heartbeat CPU 0 instructions: 90000000 cycles: 26342392 heartbeat IPC: 2.917 cumulative IPC: 2.917 (Simulation time: 00 hr 07 min 44 sec)
Heartbeat CPU 0 instructions: 100000003 cycles: 29773619 heartbeat IPC: 2.914 cumulative IPC: 2.917 (Simulation time: 00 hr 08 min 42 sec)
Heartbeat CPU 0 instructions: 110000000 cycles: 33199684 heartbeat IPC: 2.919 cumulative IPC: 2.917 (Simulation time: 00 hr 09 min 41 sec)
Heartbeat CPU 0 instructions: 120000001 cycles: 36624207 heartbeat IPC: 2.92 cumulative IPC: 2.918 (Simulation time: 00 hr 10 min 38 sec)
Heartbeat CPU 0 instructions: 130000001 cycles: 40050788 heartbeat IPC: 2.918 cumulative IPC: 2.918 (Simulation time: 00 hr 11 min 34 sec)
Heartbeat CPU 0 instructions: 140000002 cycles: 43477136 heartbeat IPC: 2.919 cumulative IPC: 2.918 (Simulation time: 00 hr 12 min 31 sec)
Heartbeat CPU 0 instructions: 150000000 cycles: 46902215 heartbeat IPC: 2.92 cumulative IPC: 2.918 (Simulation time: 00 hr 13 min 25 sec)
Heartbeat CPU 0 instructions: 160000002 cycles: 50328722 heartbeat IPC: 2.918 cumulative IPC: 2.918 (Simulation time: 00 hr 14 min 20 sec)
Heartbeat CPU 0 instructions: 170000000 cycles: 53756209 heartbeat IPC: 2.918 cumulative IPC: 2.918 (Simulation time: 00 hr 15 min 15 sec)
Heartbeat CPU 0 instructions: 180000004 cycles: 57182235 heartbeat IPC: 2.919 cumulative IPC: 2.918 (Simulation time: 00 hr 16 min 10 sec)
Heartbeat CPU 0 instructions: 190000001 cycles: 60608942 heartbeat IPC: 2.918 cumulative IPC: 2.918 (Simulation time: 00 hr 17 min 04 sec)
Heartbeat CPU 0 instructions: 200000001 cycles: 64034698 heartbeat IPC: 2.919 cumulative IPC: 2.918 (Simulation time: 00 hr 17 min 58 sec)
Heartbeat CPU 0 instructions: 210000004 cycles: 67460593 heartbeat IPC: 2.919 cumulative IPC: 2.918 (Simulation time: 00 hr 18 min 54 sec)
Heartbeat CPU 0 instructions: 220000002 cycles: 70888099 heartbeat IPC: 2.918 cumulative IPC: 2.918 (Simulation time: 00 hr 19 min 48 sec)
Heartbeat CPU 0 instructions: 230000000 cycles: 74232290 heartbeat IPC: 2.99 cumulative IPC: 2.922 (Simulation time: 00 hr 20 min 52 sec)
Heartbeat CPU 0 instructions: 240000003 cycles: 78577683 heartbeat IPC: 2.301 cumulative IPC: 2.881 (Simulation time: 00 hr 22 min 10 sec)
Heartbeat CPU 0 instructions: 250000003 cycles: 82011358 heartbeat IPC: 2.912 cumulative IPC: 2.883 (Simulation time: 00 hr 23 min 05 sec)
Heartbeat CPU 0 instructions: 260000000 cycles: 85438096 heartbeat IPC: 2.918 cumulative IPC: 2.884 (Simulation time: 00 hr 23 min 59 sec)
Heartbeat CPU 0 instructions: 270000004 cycles: 88864091 heartbeat IPC: 2.919 cumulative IPC: 2.886 (Simulation time: 00 hr 24 min 39 sec)
Heartbeat CPU 0 instructions: 280000000 cycles: 92291918 heartbeat IPC: 2.917 cumulative IPC: 2.887 (Simulation time: 00 hr 25 min 23 sec)
Heartbeat CPU 0 instructions: 290000002 cycles: 95720053 heartbeat IPC: 2.917 cumulative IPC: 2.888 (Simulation time: 00 hr 26 min 31 sec)
Heartbeat CPU 0 instructions: 300000004 cycles: 99143619 heartbeat IPC: 2.921 cumulative IPC: 2.89 (Simulation time: 00 hr 27 min 57 sec)
Heartbeat CPU 0 instructions: 310000002 cycles: 102571742 heartbeat IPC: 2.917 cumulative IPC: 2.891 (Simulation time: 00 hr 29 min 16 sec)
Heartbeat CPU 0 instructions: 320000000 cycles: 105999552 heartbeat IPC: 2.917 cumulative IPC: 2.892 (Simulation time: 00 hr 29 min 55 sec)
Heartbeat CPU 0 instructions: 330000004 cycles: 109426301 heartbeat IPC: 2.918 cumulative IPC: 2.893 (Simulation time: 00 hr 30 min 34 sec)
Heartbeat CPU 0 instructions: 340000000 cycles: 112853558 heartbeat IPC: 2.918 cumulative IPC: 2.894 (Simulation time: 00 hr 31 min 13 sec)
Heartbeat CPU 0 instructions: 350000003 cycles: 116282479 heartbeat IPC: 2.916 cumulative IPC: 2.894 (Simulation time: 00 hr 31 min 52 sec)
Heartbeat CPU 0 instructions: 360000003 cycles: 119710127 heartbeat IPC: 2.917 cumulative IPC: 2.895 (Simulation time: 00 hr 32 min 32 sec)
Heartbeat CPU 0 instructions: 370000004 cycles: 123136519 heartbeat IPC: 2.919 cumulative IPC: 2.896 (Simulation time: 00 hr 33 min 12 sec)
Heartbeat CPU 0 instructions: 380000003 cycles: 126562053 heartbeat IPC: 2.919 cumulative IPC: 2.896 (Simulation time: 00 hr 33 min 53 sec)
Heartbeat CPU 0 instructions: 390000000 cycles: 129983032 heartbeat IPC: 2.923 cumulative IPC: 2.897 (Simulation time: 00 hr 34 min 35 sec)
Heartbeat CPU 0 instructions: 400000002 cycles: 133410412 heartbeat IPC: 2.918 cumulative IPC: 2.898 (Simulation time: 00 hr 35 min 17 sec)
Heartbeat CPU 0 instructions: 410000003 cycles: 136837908 heartbeat IPC: 2.918 cumulative IPC: 2.898 (Simulation time: 00 hr 35 min 57 sec)
Heartbeat CPU 0 instructions: 420000001 cycles: 140265736 heartbeat IPC: 2.917 cumulative IPC: 2.899 (Simulation time: 00 hr 36 min 37 sec)
Heartbeat CPU 0 instructions: 430000001 cycles: 143694486 heartbeat IPC: 2.917 cumulative IPC: 2.899 (Simulation time: 00 hr 37 min 16 sec)
Heartbeat CPU 0 instructions: 440000002 cycles: 147119046 heartbeat IPC: 2.92 cumulative IPC: 2.9 (Simulation time: 00 hr 37 min 54 sec)
Heartbeat CPU 0 instructions: 450000001 cycles: 150163830 heartbeat IPC: 3.284 cumulative IPC: 2.908 (Simulation time: 00 hr 38 min 35 sec)
Heartbeat CPU 0 instructions: 460000002 cycles: 153796399 heartbeat IPC: 2.753 cumulative IPC: 2.904 (Simulation time: 00 hr 39 min 24 sec)
Heartbeat CPU 0 instructions: 470000004 cycles: 157219709 heartbeat IPC: 2.921 cumulative IPC: 2.905 (Simulation time: 00 hr 40 min 03 sec)
Heartbeat CPU 0 instructions: 480000000 cycles: 160647936 heartbeat IPC: 2.917 cumulative IPC: 2.905 (Simulation time: 00 hr 40 min 42 sec)
Heartbeat CPU 0 instructions: 490000000 cycles: 164073311 heartbeat IPC: 2.919 cumulative IPC: 2.905 (Simulation time: 00 hr 41 min 21 sec)
Heartbeat CPU 0 instructions: 500000002 cycles: 167500073 heartbeat IPC: 2.918 cumulative IPC: 2.906 (Simulation time: 00 hr 42 min 00 sec)
Heartbeat CPU 0 instructions: 510000001 cycles: 170929006 heartbeat IPC: 2.916 cumulative IPC: 2.906 (Simulation time: 00 hr 42 min 39 sec)
Heartbeat CPU 0 instructions: 520000003 cycles: 174354337 heartbeat IPC: 2.919 cumulative IPC: 2.906 (Simulation time: 00 hr 43 min 17 sec)
Heartbeat CPU 0 instructions: 530000002 cycles: 177778207 heartbeat IPC: 2.921 cumulative IPC: 2.907 (Simulation time: 00 hr 43 min 56 sec)
Heartbeat CPU 0 instructions: 540000000 cycles: 181206906 heartbeat IPC: 2.917 cumulative IPC: 2.907 (Simulation time: 00 hr 44 min 35 sec)
Heartbeat CPU 0 instructions: 550000000 cycles: 184633147 heartbeat IPC: 2.919 cumulative IPC: 2.907 (Simulation time: 00 hr 45 min 13 sec)
Heartbeat CPU 0 instructions: 560000001 cycles: 188057896 heartbeat IPC: 2.92 cumulative IPC: 2.907 (Simulation time: 00 hr 45 min 54 sec)
Heartbeat CPU 0 instructions: 570000001 cycles: 191483378 heartbeat IPC: 2.919 cumulative IPC: 2.907 (Simulation time: 00 hr 46 min 33 sec)
Heartbeat CPU 0 instructions: 580000000 cycles: 194913167 heartbeat IPC: 2.916 cumulative IPC: 2.908 (Simulation time: 00 hr 47 min 14 sec)
Heartbeat CPU 0 instructions: 590000003 cycles: 198339552 heartbeat IPC: 2.919 cumulative IPC: 2.908 (Simulation time: 00 hr 47 min 53 sec)
*** Reached end of trace: (0, "traces/l1l2cache.champsimtrace")
Heartbeat CPU 0 instructions: 600000001 cycles: 201767688 heartbeat IPC: 2.917 cumulative IPC: 2.908 (Simulation time: 00 hr 48 min 32 sec)
Heartbeat CPU 0 instructions: 610000000 cycles: 206503266 heartbeat IPC: 2.112 cumulative IPC: 2.889 (Simulation time: 00 hr 49 min 32 sec)
Heartbeat CPU 0 instructions: 620000004 cycles: 209247935 heartbeat IPC: 3.643 cumulative IPC: 2.899 (Simulation time: 00 hr 50 min 18 sec)
Heartbeat CPU 0 instructions: 630000004 cycles: 212671011 heartbeat IPC: 2.921 cumulative IPC: 2.899 (Simulation time: 00 hr 51 min 03 sec)
Heartbeat CPU 0 instructions: 640000000 cycles: 216095939 heartbeat IPC: 2.92 cumulative IPC: 2.9 (Simulation time: 00 hr 51 min 43 sec)
Heartbeat CPU 0 instructions: 650000004 cycles: 219525343 heartbeat IPC: 2.916 cumulative IPC: 2.9 (Simulation time: 00 hr 52 min 27 sec)
Simulation finished CPU 0 instructions: 600000004 cycles: 206894069 cumulative IPC: 2.9 (Simulation time: 00 hr 52 min 27 sec)
Simulation complete CPU 0 instructions: 600000004 cycles: 206894069 cumulative IPC: 2.9 (Simulation time: 00 hr 52 min 27 sec)

ChampSim completed all CPUs

=== Simulation ===
CPU 0 runs traces/l1l2cache.champsimtrace
Region of Interest Statistics

CPU 0 cumulative IPC: 2.9 instructions: 600000004 cycles: 206894069
CPU 0 Branch Prediction Accuracy: 93.04% MPKI: 5.913 Average ROB Occupancy at Mispredict: 67.87
Branch type MPKI
BRANCH_DIRECT_JUMP: 9.5e-05
BRANCH_INDIRECT: 0.000282
BRANCH_CONDITIONAL: 5.91
BRANCH_DIRECT_CALL: 3.33e-06
BRANCH_INDIRECT_CALL: 4.83e-05
BRANCH_RETURN: 3.33e-05

LLC TOTAL        ACCESS:     408883 HIT:     280871 MISS:     128012
LLC LOAD         ACCESS:      59445 HIT:      45886 MISS:      13559
LLC RFO          ACCESS:      99913 HIT:      60872 MISS:      39041
LLC PREFETCH     ACCESS:     149213 HIT:     109091 MISS:      40122
LLC WRITE        ACCESS:     100307 HIT:      65022 MISS:      35285
LLC TRANSLATION  ACCESS:          5 HIT:          0 MISS:          5
LLC PREFETCH REQUESTED:     149213 ISSUED:     149213 USEFUL:      17206 USELESS:        183
LLC AVERAGE MISS LATENCY: 265.6 cycles
cpu0_DTLB TOTAL        ACCESS:   82422136 HIT:   82411255 MISS:      10881
cpu0_DTLB LOAD         ACCESS:   82422136 HIT:   82411255 MISS:      10881
cpu0_DTLB RFO          ACCESS:          0 HIT:          0 MISS:          0
cpu0_DTLB PREFETCH     ACCESS:          0 HIT:          0 MISS:          0
cpu0_DTLB WRITE        ACCESS:          0 HIT:          0 MISS:          0
cpu0_DTLB TRANSLATION  ACCESS:          0 HIT:          0 MISS:          0
cpu0_DTLB PREFETCH REQUESTED:          0 ISSUED:          0 USEFUL:          0 USELESS:          0
cpu0_DTLB AVERAGE MISS LATENCY: 5.844 cycles
cpu0_ITLB TOTAL        ACCESS:       5572 HIT:       5354 MISS:        218
cpu0_ITLB LOAD         ACCESS:       5572 HIT:       5354 MISS:        218
cpu0_ITLB RFO          ACCESS:          0 HIT:          0 MISS:          0
cpu0_ITLB PREFETCH     ACCESS:          0 HIT:          0 MISS:          0
cpu0_ITLB WRITE        ACCESS:          0 HIT:          0 MISS:          0
cpu0_ITLB TRANSLATION  ACCESS:          0 HIT:          0 MISS:          0
cpu0_ITLB PREFETCH REQUESTED:          0 ISSUED:          0 USEFUL:          0 USELESS:          0
cpu0_ITLB AVERAGE MISS LATENCY: 6.459 cycles
cpu0_L1D TOTAL        ACCESS:  104711437 HIT:  103083698 MISS:    1627739
cpu0_L1D LOAD         ACCESS:   45444285 HIT:   45050243 MISS:     394042
cpu0_L1D RFO          ACCESS:          0 HIT:          0 MISS:          0
cpu0_L1D PREFETCH     ACCESS:          0 HIT:          0 MISS:          0
cpu0_L1D WRITE        ACCESS:   59266894 HIT:   58033202 MISS:    1233692
cpu0_L1D TRANSLATION  ACCESS:        258 HIT:        253 MISS:          5
cpu0_L1D PREFETCH REQUESTED:          0 ISSUED:          0 USEFUL:          0 USELESS:          0
cpu0_L1D AVERAGE MISS LATENCY: 16.06 cycles
cpu0_L1I TOTAL        ACCESS:       6335 HIT:       4053 MISS:       2282
cpu0_L1I LOAD         ACCESS:       6335 HIT:       4053 MISS:       2282
cpu0_L1I RFO          ACCESS:          0 HIT:          0 MISS:          0
cpu0_L1I PREFETCH     ACCESS:          0 HIT:          0 MISS:          0
cpu0_L1I WRITE        ACCESS:          0 HIT:          0 MISS:          0
cpu0_L1I TRANSLATION  ACCESS:          0 HIT:          0 MISS:          0
cpu0_L1I PREFETCH REQUESTED:          0 ISSUED:          0 USEFUL:          0 USELESS:          0
cpu0_L1I AVERAGE MISS LATENCY: 350.6 cycles
cpu0_L2C TOTAL        ACCESS:     265742 HIT:     106357 MISS:     159385
cpu0_L2C LOAD         ACCESS:      63734 HIT:       4289 MISS:      59445
cpu0_L2C RFO          ACCESS:     100737 HIT:        824 MISS:      99913
cpu0_L2C PREFETCH     ACCESS:          0 HIT:          0 MISS:          0
cpu0_L2C WRITE        ACCESS:     101266 HIT:     101244 MISS:         22
cpu0_L2C TRANSLATION  ACCESS:          5 HIT:          0 MISS:          5
cpu0_L2C PREFETCH REQUESTED:          0 ISSUED:          0 USEFUL:          0 USELESS:          0
cpu0_L2C AVERAGE MISS LATENCY: 197.2 cycles
cpu0_STLB TOTAL        ACCESS:       3913 HIT:       3656 MISS:        257
cpu0_STLB LOAD         ACCESS:       3913 HIT:       3656 MISS:        257
cpu0_STLB RFO          ACCESS:          0 HIT:          0 MISS:          0
cpu0_STLB PREFETCH     ACCESS:          0 HIT:          0 MISS:          0
cpu0_STLB WRITE        ACCESS:          0 HIT:          0 MISS:          0
cpu0_STLB TRANSLATION  ACCESS:          0 HIT:          0 MISS:          0
cpu0_STLB PREFETCH REQUESTED:          0 ISSUED:          0 USEFUL:          0 USELESS:          0
cpu0_STLB AVERAGE MISS LATENCY: 218.4 cycles

DRAM Statistics

Channel 0 RQ ROW_BUFFER_HIT:      33041
  ROW_BUFFER_MISS:      30613
 AVG DBUS CONGESTED CYCLE: 3.958
WQ ROW_BUFFER_HIT: Channel 0 
  ROW_BUFFER_MISS:      12328
  FULL:      24204
