WARNING: physical memory size is smaller than virtual memory size.

*** ChampSim Multicore Out-of-Order Simulator ***
Warmup Instructions: 50000000
Simulation Instructions: 600000000
Number of CPUs: 1
Page size: 4096

Off-chip DRAM Size: 4 GiB Channels: 1 Width: 64-bit Data Race: 3200 MT/s
Heartbeat CPU 0 instructions: 10000002 cycles: 2565786 heartbeat IPC: 3.897 cumulative IPC: 3.897 (Simulation time: 00 hr 00 min 41 sec)
Heartbeat CPU 0 instructions: 20000000 cycles: 5131275 heartbeat IPC: 3.898 cumulative IPC: 3.898 (Simulation time: 00 hr 01 min 24 sec)
Heartbeat CPU 0 instructions: 30000000 cycles: 7631275 heartbeat IPC: 4 cumulative IPC: 3.931 (Simulation time: 00 hr 02 min 05 sec)
Heartbeat CPU 0 instructions: 40000000 cycles: 10131275 heartbeat IPC: 4 cumulative IPC: 3.948 (Simulation time: 00 hr 02 min 46 sec)
Heartbeat CPU 0 instructions: 50000000 cycles: 12631275 heartbeat IPC: 4 cumulative IPC: 3.958 (Simulation time: 00 hr 03 min 31 sec)
Warmup finished CPU 0 instructions: 50000000 cycles: 12631276 cumulative IPC: 3.958 (Simulation time: 00 hr 03 min 31 sec)
Warmup complete CPU 0 instructions: 50000000 cycles: 12631276 cumulative IPC: 3.958 (Simulation time: 00 hr 03 min 31 sec)
Heartbeat CPU 0 instructions: 60000000 cycles: 16058853 heartbeat IPC: 2.918 cumulative IPC: 2.918 (Simulation time: 00 hr 04 min 23 sec)
Heartbeat CPU 0 instructions: 70000000 cycles: 19488287 heartbeat IPC: 2.916 cumulative IPC: 2.917 (Simulation time: 00 hr 05 min 16 sec)
Heartbeat CPU 0 instructions: 80000004 cycles: 22914705 heartbeat IPC: 2.919 cumulative IPC: 2.917 (Simulation time: 00 hr 06 min 09 sec)
Heartbeat CPU 0 instructions: 90000000 cycles: 26342393 heartbeat IPC: 2.917 cumulative IPC: 2.917 (Simulation time: 00 hr 07 min 03 sec)
Heartbeat CPU 0 instructions: 100000003 cycles: 29773620 heartbeat IPC: 2.914 cumulative IPC: 2.917 (Simulation time: 00 hr 08 min 04 sec)
Heartbeat CPU 0 instructions: 110000000 cycles: 33199685 heartbeat IPC: 2.919 cumulative IPC: 2.917 (Simulation time: 00 hr 09 min 05 sec)
Heartbeat CPU 0 instructions: 120000001 cycles: 36624208 heartbeat IPC: 2.92 cumulative IPC: 2.918 (Simulation time: 00 hr 10 min 04 sec)
Heartbeat CPU 0 instructions: 130000001 cycles: 40050789 heartbeat IPC: 2.918 cumulative IPC: 2.918 (Simulation time: 00 hr 11 min 02 sec)
Heartbeat CPU 0 instructions: 140000002 cycles: 43477137 heartbeat IPC: 2.919 cumulative IPC: 2.918 (Simulation time: 00 hr 12 min 01 sec)
Heartbeat CPU 0 instructions: 150000000 cycles: 46902216 heartbeat IPC: 2.92 cumulative IPC: 2.918 (Simulation time: 00 hr 12 min 59 sec)
Heartbeat CPU 0 instructions: 160000002 cycles: 50328723 heartbeat IPC: 2.918 cumulative IPC: 2.918 (Simulation time: 00 hr 13 min 57 sec)
Heartbeat CPU 0 instructions: 170000000 cycles: 53756210 heartbeat IPC: 2.918 cumulative IPC: 2.918 (Simulation time: 00 hr 14 min 55 sec)
Heartbeat CPU 0 instructions: 180000004 cycles: 57182236 heartbeat IPC: 2.919 cumulative IPC: 2.918 (Simulation time: 00 hr 15 min 54 sec)
Heartbeat CPU 0 instructions: 190000001 cycles: 60608943 heartbeat IPC: 2.918 cumulative IPC: 2.918 (Simulation time: 00 hr 16 min 53 sec)
Heartbeat CPU 0 instructions: 200000001 cycles: 64034699 heartbeat IPC: 2.919 cumulative IPC: 2.918 (Simulation time: 00 hr 17 min 53 sec)
Heartbeat CPU 0 instructions: 210000004 cycles: 67460594 heartbeat IPC: 2.919 cumulative IPC: 2.918 (Simulation time: 00 hr 18 min 52 sec)
Heartbeat CPU 0 instructions: 220000002 cycles: 70888100 heartbeat IPC: 2.918 cumulative IPC: 2.918 (Simulation time: 00 hr 19 min 48 sec)
Heartbeat CPU 0 instructions: 230000001 cycles: 74054307 heartbeat IPC: 3.158 cumulative IPC: 2.93 (Simulation time: 00 hr 20 min 50 sec)
Heartbeat CPU 0 instructions: 240000003 cycles: 76798464 heartbeat IPC: 3.644 cumulative IPC: 2.961 (Simulation time: 00 hr 21 min 50 sec)
Heartbeat CPU 0 instructions: 250000003 cycles: 80232139 heartbeat IPC: 2.912 cumulative IPC: 2.959 (Simulation time: 00 hr 22 min 49 sec)
Heartbeat CPU 0 instructions: 260000000 cycles: 83658877 heartbeat IPC: 2.918 cumulative IPC: 2.957 (Simulation time: 00 hr 24 min 05 sec)
Heartbeat CPU 0 instructions: 270000004 cycles: 87084872 heartbeat IPC: 2.919 cumulative IPC: 2.955 (Simulation time: 00 hr 24 min 53 sec)
Heartbeat CPU 0 instructions: 280000000 cycles: 90512699 heartbeat IPC: 2.917 cumulative IPC: 2.953 (Simulation time: 00 hr 25 min 29 sec)
Heartbeat CPU 0 instructions: 290000002 cycles: 93940834 heartbeat IPC: 2.917 cumulative IPC: 2.952 (Simulation time: 00 hr 26 min 05 sec)
Heartbeat CPU 0 instructions: 300000004 cycles: 97364400 heartbeat IPC: 2.921 cumulative IPC: 2.95 (Simulation time: 00 hr 26 min 53 sec)
Heartbeat CPU 0 instructions: 310000002 cycles: 100792523 heartbeat IPC: 2.917 cumulative IPC: 2.949 (Simulation time: 00 hr 27 min 55 sec)
Heartbeat CPU 0 instructions: 320000000 cycles: 104220333 heartbeat IPC: 2.917 cumulative IPC: 2.948 (Simulation time: 00 hr 29 min 13 sec)
Heartbeat CPU 0 instructions: 330000004 cycles: 107647082 heartbeat IPC: 2.918 cumulative IPC: 2.947 (Simulation time: 00 hr 29 min 53 sec)
Heartbeat CPU 0 instructions: 340000000 cycles: 111074339 heartbeat IPC: 2.918 cumulative IPC: 2.946 (Simulation time: 00 hr 30 min 37 sec)
Heartbeat CPU 0 instructions: 350000003 cycles: 114503260 heartbeat IPC: 2.916 cumulative IPC: 2.945 (Simulation time: 00 hr 31 min 24 sec)
Heartbeat CPU 0 instructions: 360000003 cycles: 117930908 heartbeat IPC: 2.917 cumulative IPC: 2.944 (Simulation time: 00 hr 32 min 17 sec)
Heartbeat CPU 0 instructions: 370000004 cycles: 121357300 heartbeat IPC: 2.919 cumulative IPC: 2.943 (Simulation time: 00 hr 33 min 19 sec)
Heartbeat CPU 0 instructions: 380000003 cycles: 124782834 heartbeat IPC: 2.919 cumulative IPC: 2.942 (Simulation time: 00 hr 34 min 23 sec)
Heartbeat CPU 0 instructions: 390000000 cycles: 128203813 heartbeat IPC: 2.923 cumulative IPC: 2.942 (Simulation time: 00 hr 35 min 27 sec)
Heartbeat CPU 0 instructions: 400000002 cycles: 131631193 heartbeat IPC: 2.918 cumulative IPC: 2.941 (Simulation time: 00 hr 36 min 29 sec)
Heartbeat CPU 0 instructions: 410000003 cycles: 135058689 heartbeat IPC: 2.918 cumulative IPC: 2.941 (Simulation time: 00 hr 37 min 32 sec)
Heartbeat CPU 0 instructions: 420000001 cycles: 138486517 heartbeat IPC: 2.917 cumulative IPC: 2.94 (Simulation time: 00 hr 38 min 36 sec)
Heartbeat CPU 0 instructions: 430000001 cycles: 141915267 heartbeat IPC: 2.917 cumulative IPC: 2.939 (Simulation time: 00 hr 39 min 41 sec)
Heartbeat CPU 0 instructions: 440000002 cycles: 145339827 heartbeat IPC: 2.92 cumulative IPC: 2.939 (Simulation time: 00 hr 40 min 45 sec)
Heartbeat CPU 0 instructions: 450000001 cycles: 148111019 heartbeat IPC: 3.609 cumulative IPC: 2.952 (Simulation time: 00 hr 41 min 49 sec)
Heartbeat CPU 0 instructions: 460000002 cycles: 150844337 heartbeat IPC: 3.659 cumulative IPC: 2.966 (Simulation time: 00 hr 42 min 56 sec)
Heartbeat CPU 0 instructions: 470000004 cycles: 154267647 heartbeat IPC: 2.921 cumulative IPC: 2.965 (Simulation time: 00 hr 44 min 01 sec)
Heartbeat CPU 0 instructions: 480000000 cycles: 157695874 heartbeat IPC: 2.917 cumulative IPC: 2.964 (Simulation time: 00 hr 45 min 06 sec)
Heartbeat CPU 0 instructions: 490000000 cycles: 161121249 heartbeat IPC: 2.919 cumulative IPC: 2.963 (Simulation time: 00 hr 46 min 10 sec)
Heartbeat CPU 0 instructions: 500000002 cycles: 164548011 heartbeat IPC: 2.918 cumulative IPC: 2.962 (Simulation time: 00 hr 47 min 16 sec)
Heartbeat CPU 0 instructions: 510000001 cycles: 167976944 heartbeat IPC: 2.916 cumulative IPC: 2.961 (Simulation time: 00 hr 48 min 21 sec)
Heartbeat CPU 0 instructions: 520000003 cycles: 171402275 heartbeat IPC: 2.919 cumulative IPC: 2.96 (Simulation time: 00 hr 49 min 26 sec)
Heartbeat CPU 0 instructions: 530000002 cycles: 174826145 heartbeat IPC: 2.921 cumulative IPC: 2.959 (Simulation time: 00 hr 50 min 32 sec)
Heartbeat CPU 0 instructions: 540000000 cycles: 178254844 heartbeat IPC: 2.917 cumulative IPC: 2.959 (Simulation time: 00 hr 51 min 36 sec)
Heartbeat CPU 0 instructions: 550000000 cycles: 181681085 heartbeat IPC: 2.919 cumulative IPC: 2.958 (Simulation time: 00 hr 52 min 41 sec)
Heartbeat CPU 0 instructions: 560000001 cycles: 185105834 heartbeat IPC: 2.92 cumulative IPC: 2.957 (Simulation time: 00 hr 53 min 39 sec)
Heartbeat CPU 0 instructions: 570000001 cycles: 188531316 heartbeat IPC: 2.919 cumulative IPC: 2.956 (Simulation time: 00 hr 55 min 25 sec)
Heartbeat CPU 0 instructions: 580000000 cycles: 191961105 heartbeat IPC: 2.916 cumulative IPC: 2.955 (Simulation time: 00 hr 57 min 40 sec)
Heartbeat CPU 0 instructions: 590000003 cycles: 195387490 heartbeat IPC: 2.919 cumulative IPC: 2.955 (Simulation time: 00 hr 59 min 55 sec)
*** Reached end of trace: (0, "traces/l1l2cache.champsimtrace")
Heartbeat CPU 0 instructions: 600000001 cycles: 198815626 heartbeat IPC: 2.917 cumulative IPC: 2.954 (Simulation time: 01 hr 01 min 44 sec)
Heartbeat CPU 0 instructions: 610000000 cycles: 208375553 heartbeat IPC: 1.046 cumulative IPC: 2.861 (Simulation time: 01 hr 05 min 03 sec)
Heartbeat CPU 0 instructions: 620000004 cycles: 211120635 heartbeat IPC: 3.643 cumulative IPC: 2.872 (Simulation time: 01 hr 05 min 35 sec)
Heartbeat CPU 0 instructions: 630000004 cycles: 214543711 heartbeat IPC: 2.921 cumulative IPC: 2.873 (Simulation time: 01 hr 06 min 08 sec)
Heartbeat CPU 0 instructions: 640000000 cycles: 217968639 heartbeat IPC: 2.92 cumulative IPC: 2.873 (Simulation time: 01 hr 06 min 43 sec)
Heartbeat CPU 0 instructions: 650000004 cycles: 221398043 heartbeat IPC: 2.916 cumulative IPC: 2.874 (Simulation time: 01 hr 07 min 20 sec)
Simulation finished CPU 0 instructions: 600000004 cycles: 208766768 cumulative IPC: 2.874 (Simulation time: 01 hr 07 min 20 sec)
Simulation complete CPU 0 instructions: 600000004 cycles: 208766768 cumulative IPC: 2.874 (Simulation time: 01 hr 07 min 20 sec)

ChampSim completed all CPUs

=== Simulation ===
CPU 0 runs traces/l1l2cache.champsimtrace
Region of Interest Statistics

CPU 0 cumulative IPC: 2.874 instructions: 600000004 cycles: 208766768
CPU 0 Branch Prediction Accuracy: 93.04% MPKI: 5.913 Average ROB Occupancy at Mispredict: 67.87
Branch type MPKI
BRANCH_DIRECT_JUMP: 9.5e-05
BRANCH_INDIRECT: 0.000282
BRANCH_CONDITIONAL: 5.91
BRANCH_DIRECT_CALL: 3.33e-06
BRANCH_INDIRECT_CALL: 4.83e-05
BRANCH_RETURN: 3.33e-05

LLC TOTAL        ACCESS:     408896 HIT:     361766 MISS:      47130
LLC LOAD         ACCESS:      59445 HIT:      51148 MISS:       8297
LLC RFO          ACCESS:      99913 HIT:      65571 MISS:      34342
LLC PREFETCH     ACCESS:     149228 HIT:     144762 MISS:       4466
LLC WRITE        ACCESS:     100305 HIT:     100285 MISS:         20
LLC TRANSLATION  ACCESS:          5 HIT:          0 MISS:          5
LLC PREFETCH REQUESTED:     149228 ISSUED:     149228 USEFUL:       2294 USELESS:        130
LLC AVERAGE MISS LATENCY: 898.8 cycles
cpu0_DTLB TOTAL        ACCESS:   82326677 HIT:   82315834 MISS:      10843
cpu0_DTLB LOAD         ACCESS:   82326677 HIT:   82315834 MISS:      10843
cpu0_DTLB RFO          ACCESS:          0 HIT:          0 MISS:          0
cpu0_DTLB PREFETCH     ACCESS:          0 HIT:          0 MISS:          0
cpu0_DTLB WRITE        ACCESS:          0 HIT:          0 MISS:          0
cpu0_DTLB TRANSLATION  ACCESS:          0 HIT:          0 MISS:          0
cpu0_DTLB PREFETCH REQUESTED:          0 ISSUED:          0 USEFUL:          0 USELESS:          0
cpu0_DTLB AVERAGE MISS LATENCY: 5.889 cycles
cpu0_ITLB TOTAL        ACCESS:       5577 HIT:       5360 MISS:        217
cpu0_ITLB LOAD         ACCESS:       5577 HIT:       5360 MISS:        217
cpu0_ITLB RFO          ACCESS:          0 HIT:          0 MISS:          0
cpu0_ITLB PREFETCH     ACCESS:          0 HIT:          0 MISS:          0
cpu0_ITLB WRITE        ACCESS:          0 HIT:          0 MISS:          0
cpu0_ITLB TRANSLATION  ACCESS:          0 HIT:          0 MISS:          0
cpu0_ITLB PREFETCH REQUESTED:          0 ISSUED:          0 USEFUL:          0 USELESS:          0
cpu0_ITLB AVERAGE MISS LATENCY: 6.502 cycles
cpu0_L1D TOTAL        ACCESS:  104576588 HIT:  103185959 MISS:    1390629
cpu0_L1D LOAD         ACCESS:   45337953 HIT:   44988590 MISS:     349363
cpu0_L1D RFO          ACCESS:          0 HIT:          0 MISS:          0
cpu0_L1D PREFETCH     ACCESS:          0 HIT:          0 MISS:          0
cpu0_L1D WRITE        ACCESS:   59238377 HIT:   58197116 MISS:    1041261
cpu0_L1D TRANSLATION  ACCESS:        258 HIT:        253 MISS:          5
cpu0_L1D PREFETCH REQUESTED:          0 ISSUED:          0 USEFUL:          0 USELESS:          0
cpu0_L1D AVERAGE MISS LATENCY: 27.57 cycles
cpu0_L1I TOTAL        ACCESS:       6338 HIT:       4051 MISS:       2287
cpu0_L1I LOAD         ACCESS:       6338 HIT:       4051 MISS:       2287
cpu0_L1I RFO          ACCESS:          0 HIT:          0 MISS:          0
cpu0_L1I PREFETCH     ACCESS:          0 HIT:          0 MISS:          0
cpu0_L1I WRITE        ACCESS:          0 HIT:          0 MISS:          0
cpu0_L1I TRANSLATION  ACCESS:          0 HIT:          0 MISS:          0
cpu0_L1I PREFETCH REQUESTED:          0 ISSUED:          0 USEFUL:          0 USELESS:          0
cpu0_L1I AVERAGE MISS LATENCY: 632.8 cycles
cpu0_L2C TOTAL        ACCESS:     265732 HIT:     106345 MISS:     159387
cpu0_L2C LOAD         ACCESS:      63734 HIT:       4289 MISS:      59445
cpu0_L2C RFO          ACCESS:     100731 HIT:        818 MISS:      99913
cpu0_L2C PREFETCH     ACCESS:          0 HIT:          0 MISS:          0
cpu0_L2C WRITE        ACCESS:     101262 HIT:     101238 MISS:         24
cpu0_L2C TRANSLATION  ACCESS:          5 HIT:          0 MISS:          5
cpu0_L2C PREFETCH REQUESTED:          0 ISSUED:          0 USEFUL:          0 USELESS:          0
cpu0_L2C AVERAGE MISS LATENCY: 270.3 cycles
cpu0_STLB TOTAL        ACCESS:       3913 HIT:       3656 MISS:        257
cpu0_STLB LOAD         ACCESS:       3913 HIT:       3656 MISS:        257
cpu0_STLB RFO          ACCESS:          0 HIT:          0 MISS:          0
cpu0_STLB PREFETCH     ACCESS:          0 HIT:          0 MISS:          0
cpu0_STLB WRITE        ACCESS:          0 HIT:          0 MISS:          0
cpu0_STLB TRANSLATION  ACCESS:          0 HIT:          0 MISS:          0
cpu0_STLB PREFETCH REQUESTED:          0 ISSUED:          0 USEFUL:          0 USELESS:          0
cpu0_STLB AVERAGE MISS LATENCY: 218.5 cycles

DRAM Statistics

Channel 0 RQ ROW_BUFFER_HIT:      17944
  ROW_BUFFER_MISS:      26414
 AVG DBUS CONGESTED CYCLE: 3.981
WQ ROW_BUFFER_HIT: Channel 0 
  ROW_BUFFER_MISS:       5367
  FULL:      24350
