WARNING: physical memory size is smaller than virtual memory size.

*** ChampSim Multicore Out-of-Order Simulator ***
Warmup Instructions: 50000000
Simulation Instructions: 600000000
Number of CPUs: 1
Page size: 4096

CPU 0 Tage branch predictor
Off-chip DRAM Size: 4 GiB Channels: 1 Width: 64-bit Data Race: 3200 MT/s
Heartbeat CPU 0 instructions: 10000000 cycles: 2565785 heartbeat IPC: 3.897 cumulative IPC: 3.897 (Simulation time: 00 hr 01 min 01 sec)
Heartbeat CPU 0 instructions: 20000000 cycles: 5131274 heartbeat IPC: 3.898 cumulative IPC: 3.898 (Simulation time: 00 hr 02 min 10 sec)
Heartbeat CPU 0 instructions: 30000000 cycles: 7631274 heartbeat IPC: 4 cumulative IPC: 3.931 (Simulation time: 00 hr 03 min 24 sec)
Heartbeat CPU 0 instructions: 40000000 cycles: 10131274 heartbeat IPC: 4 cumulative IPC: 3.948 (Simulation time: 00 hr 04 min 47 sec)
Heartbeat CPU 0 instructions: 50000000 cycles: 12631274 heartbeat IPC: 4 cumulative IPC: 3.958 (Simulation time: 00 hr 06 min 11 sec)
Warmup finished CPU 0 instructions: 50000000 cycles: 12631275 cumulative IPC: 3.958 (Simulation time: 00 hr 06 min 11 sec)
Warmup complete CPU 0 instructions: 50000000 cycles: 12631275 cumulative IPC: 3.958 (Simulation time: 00 hr 06 min 11 sec)
Heartbeat CPU 0 instructions: 60000002 cycles: 15446860 heartbeat IPC: 3.552 cumulative IPC: 3.552 (Simulation time: 00 hr 07 min 45 sec)
Heartbeat CPU 0 instructions: 70000001 cycles: 18261922 heartbeat IPC: 3.552 cumulative IPC: 3.552 (Simulation time: 00 hr 09 min 21 sec)
Heartbeat CPU 0 instructions: 80000004 cycles: 21079021 heartbeat IPC: 3.55 cumulative IPC: 3.551 (Simulation time: 00 hr 10 min 56 sec)
Heartbeat CPU 0 instructions: 90000000 cycles: 23893913 heartbeat IPC: 3.553 cumulative IPC: 3.552 (Simulation time: 00 hr 12 min 33 sec)
Heartbeat CPU 0 instructions: 100000003 cycles: 26710910 heartbeat IPC: 3.55 cumulative IPC: 3.551 (Simulation time: 00 hr 14 min 07 sec)
Heartbeat CPU 0 instructions: 110000000 cycles: 29526056 heartbeat IPC: 3.552 cumulative IPC: 3.551 (Simulation time: 00 hr 15 min 35 sec)
Heartbeat CPU 0 instructions: 120000002 cycles: 32340652 heartbeat IPC: 3.553 cumulative IPC: 3.552 (Simulation time: 00 hr 17 min 07 sec)
Heartbeat CPU 0 instructions: 130000001 cycles: 35155871 heartbeat IPC: 3.552 cumulative IPC: 3.552 (Simulation time: 00 hr 18 min 51 sec)
Heartbeat CPU 0 instructions: 140000002 cycles: 37970732 heartbeat IPC: 3.553 cumulative IPC: 3.552 (Simulation time: 00 hr 19 min 42 sec)
Heartbeat CPU 0 instructions: 150000000 cycles: 40786093 heartbeat IPC: 3.552 cumulative IPC: 3.552 (Simulation time: 00 hr 20 min 41 sec)
Heartbeat CPU 0 instructions: 160000002 cycles: 43603215 heartbeat IPC: 3.55 cumulative IPC: 3.552 (Simulation time: 00 hr 21 min 42 sec)
Heartbeat CPU 0 instructions: 170000000 cycles: 46419904 heartbeat IPC: 3.55 cumulative IPC: 3.551 (Simulation time: 00 hr 22 min 53 sec)
Heartbeat CPU 0 instructions: 180000003 cycles: 49235188 heartbeat IPC: 3.552 cumulative IPC: 3.552 (Simulation time: 00 hr 23 min 51 sec)
Heartbeat CPU 0 instructions: 190000001 cycles: 52051321 heartbeat IPC: 3.551 cumulative IPC: 3.551 (Simulation time: 00 hr 24 min 48 sec)
Heartbeat CPU 0 instructions: 200000001 cycles: 54867266 heartbeat IPC: 3.551 cumulative IPC: 3.551 (Simulation time: 00 hr 25 min 44 sec)
Heartbeat CPU 0 instructions: 210000004 cycles: 57683189 heartbeat IPC: 3.551 cumulative IPC: 3.551 (Simulation time: 00 hr 26 min 42 sec)
Heartbeat CPU 0 instructions: 220000002 cycles: 60498850 heartbeat IPC: 3.552 cumulative IPC: 3.551 (Simulation time: 00 hr 27 min 43 sec)
Heartbeat CPU 0 instructions: 230000001 cycles: 63611277 heartbeat IPC: 3.213 cumulative IPC: 3.531 (Simulation time: 00 hr 28 min 55 sec)
Heartbeat CPU 0 instructions: 240000003 cycles: 66242389 heartbeat IPC: 3.801 cumulative IPC: 3.544 (Simulation time: 00 hr 29 min 59 sec)
Heartbeat CPU 0 instructions: 250000003 cycles: 69057830 heartbeat IPC: 3.552 cumulative IPC: 3.544 (Simulation time: 00 hr 30 min 58 sec)
Heartbeat CPU 0 instructions: 260000002 cycles: 71871999 heartbeat IPC: 3.553 cumulative IPC: 3.545 (Simulation time: 00 hr 31 min 56 sec)
Heartbeat CPU 0 instructions: 270000004 cycles: 74686888 heartbeat IPC: 3.553 cumulative IPC: 3.545 (Simulation time: 00 hr 32 min 52 sec)
Heartbeat CPU 0 instructions: 280000001 cycles: 77503318 heartbeat IPC: 3.551 cumulative IPC: 3.545 (Simulation time: 00 hr 33 min 49 sec)
Heartbeat CPU 0 instructions: 290000002 cycles: 80318810 heartbeat IPC: 3.552 cumulative IPC: 3.546 (Simulation time: 00 hr 34 min 45 sec)
Heartbeat CPU 0 instructions: 300000004 cycles: 83135340 heartbeat IPC: 3.55 cumulative IPC: 3.546 (Simulation time: 00 hr 35 min 43 sec)
Heartbeat CPU 0 instructions: 310000002 cycles: 85951989 heartbeat IPC: 3.55 cumulative IPC: 3.546 (Simulation time: 00 hr 36 min 41 sec)
Heartbeat CPU 0 instructions: 320000000 cycles: 88768453 heartbeat IPC: 3.551 cumulative IPC: 3.546 (Simulation time: 00 hr 37 min 37 sec)
Heartbeat CPU 0 instructions: 330000004 cycles: 91584528 heartbeat IPC: 3.551 cumulative IPC: 3.546 (Simulation time: 00 hr 38 min 35 sec)
Heartbeat CPU 0 instructions: 340000000 cycles: 94401374 heartbeat IPC: 3.55 cumulative IPC: 3.547 (Simulation time: 00 hr 39 min 32 sec)
Heartbeat CPU 0 instructions: 350000003 cycles: 97217415 heartbeat IPC: 3.551 cumulative IPC: 3.547 (Simulation time: 00 hr 40 min 28 sec)
Heartbeat CPU 0 instructions: 360000003 cycles: 100033687 heartbeat IPC: 3.551 cumulative IPC: 3.547 (Simulation time: 00 hr 41 min 26 sec)
Heartbeat CPU 0 instructions: 370000003 cycles: 102850590 heartbeat IPC: 3.55 cumulative IPC: 3.547 (Simulation time: 00 hr 42 min 23 sec)
Heartbeat CPU 0 instructions: 380000003 cycles: 105665577 heartbeat IPC: 3.552 cumulative IPC: 3.547 (Simulation time: 00 hr 43 min 25 sec)
Heartbeat CPU 0 instructions: 390000000 cycles: 108480878 heartbeat IPC: 3.552 cumulative IPC: 3.547 (Simulation time: 00 hr 44 min 24 sec)
Heartbeat CPU 0 instructions: 400000002 cycles: 111297949 heartbeat IPC: 3.55 cumulative IPC: 3.547 (Simulation time: 00 hr 45 min 23 sec)
Heartbeat CPU 0 instructions: 410000004 cycles: 114113533 heartbeat IPC: 3.552 cumulative IPC: 3.547 (Simulation time: 00 hr 46 min 22 sec)
Heartbeat CPU 0 instructions: 420000001 cycles: 116930788 heartbeat IPC: 3.55 cumulative IPC: 3.547 (Simulation time: 00 hr 47 min 21 sec)
Heartbeat CPU 0 instructions: 430000001 cycles: 119745935 heartbeat IPC: 3.552 cumulative IPC: 3.548 (Simulation time: 00 hr 48 min 18 sec)
Heartbeat CPU 0 instructions: 440000002 cycles: 122561829 heartbeat IPC: 3.551 cumulative IPC: 3.548 (Simulation time: 00 hr 49 min 16 sec)
Heartbeat CPU 0 instructions: 450000001 cycles: 125197474 heartbeat IPC: 3.794 cumulative IPC: 3.553 (Simulation time: 00 hr 50 min 22 sec)
Heartbeat CPU 0 instructions: 460000002 cycles: 127820710 heartbeat IPC: 3.812 cumulative IPC: 3.559 (Simulation time: 00 hr 51 min 28 sec)
Heartbeat CPU 0 instructions: 470000004 cycles: 130637438 heartbeat IPC: 3.55 cumulative IPC: 3.559 (Simulation time: 00 hr 52 min 25 sec)
Heartbeat CPU 0 instructions: 480000000 cycles: 133453523 heartbeat IPC: 3.551 cumulative IPC: 3.559 (Simulation time: 00 hr 53 min 27 sec)
Heartbeat CPU 0 instructions: 490000000 cycles: 136270184 heartbeat IPC: 3.55 cumulative IPC: 3.559 (Simulation time: 00 hr 54 min 25 sec)
Heartbeat CPU 0 instructions: 500000002 cycles: 139085693 heartbeat IPC: 3.552 cumulative IPC: 3.559 (Simulation time: 00 hr 55 min 22 sec)
Heartbeat CPU 0 instructions: 510000001 cycles: 141901191 heartbeat IPC: 3.552 cumulative IPC: 3.558 (Simulation time: 00 hr 56 min 22 sec)
Heartbeat CPU 0 instructions: 520000003 cycles: 144717313 heartbeat IPC: 3.551 cumulative IPC: 3.558 (Simulation time: 00 hr 57 min 32 sec)
Heartbeat CPU 0 instructions: 530000002 cycles: 147533339 heartbeat IPC: 3.551 cumulative IPC: 3.558 (Simulation time: 00 hr 58 min 40 sec)
Heartbeat CPU 0 instructions: 540000000 cycles: 150349122 heartbeat IPC: 3.551 cumulative IPC: 3.558 (Simulation time: 00 hr 59 min 45 sec)
Heartbeat CPU 0 instructions: 550000000 cycles: 153164027 heartbeat IPC: 3.553 cumulative IPC: 3.558 (Simulation time: 01 hr 00 min 51 sec)
Heartbeat CPU 0 instructions: 560000001 cycles: 155979934 heartbeat IPC: 3.551 cumulative IPC: 3.558 (Simulation time: 01 hr 01 min 52 sec)
Heartbeat CPU 0 instructions: 570000001 cycles: 158796893 heartbeat IPC: 3.55 cumulative IPC: 3.558 (Simulation time: 01 hr 02 min 51 sec)
Heartbeat CPU 0 instructions: 580000002 cycles: 161613604 heartbeat IPC: 3.55 cumulative IPC: 3.557 (Simulation time: 01 hr 03 min 50 sec)
Heartbeat CPU 0 instructions: 590000003 cycles: 164428743 heartbeat IPC: 3.552 cumulative IPC: 3.557 (Simulation time: 01 hr 04 min 50 sec)
*** Reached end of trace: (0, "traces/l1l2cache.champsimtrace")
Heartbeat CPU 0 instructions: 600000001 cycles: 167245749 heartbeat IPC: 3.55 cumulative IPC: 3.557 (Simulation time: 01 hr 05 min 53 sec)
Heartbeat CPU 0 instructions: 610000000 cycles: 173742466 heartbeat IPC: 1.539 cumulative IPC: 3.476 (Simulation time: 01 hr 07 min 40 sec)
Heartbeat CPU 0 instructions: 620000004 cycles: 176381095 heartbeat IPC: 3.79 cumulative IPC: 3.481 (Simulation time: 01 hr 08 min 49 sec)
Heartbeat CPU 0 instructions: 630000004 cycles: 179195865 heartbeat IPC: 3.553 cumulative IPC: 3.482 (Simulation time: 01 hr 09 min 56 sec)
Heartbeat CPU 0 instructions: 640000000 cycles: 182011882 heartbeat IPC: 3.551 cumulative IPC: 3.483 (Simulation time: 01 hr 11 min 09 sec)
Heartbeat CPU 0 instructions: 650000004 cycles: 184827269 heartbeat IPC: 3.552 cumulative IPC: 3.484 (Simulation time: 01 hr 12 min 17 sec)
Simulation finished CPU 0 instructions: 600000004 cycles: 172195995 cumulative IPC: 3.484 (Simulation time: 01 hr 12 min 17 sec)
Simulation complete CPU 0 instructions: 600000004 cycles: 172195995 cumulative IPC: 3.484 (Simulation time: 01 hr 12 min 17 sec)

ChampSim completed all CPUs

=== Simulation ===
CPU 0 runs traces/l1l2cache.champsimtrace
Region of Interest Statistics

CPU 0 cumulative IPC: 3.484 instructions: 600000004 cycles: 172195995
CPU 0 Branch Prediction Accuracy: 97.76% MPKI: 1.901 Average ROB Occupancy at Mispredict: 151.3
Branch type MPKI
BRANCH_DIRECT_JUMP: 9.5e-05
BRANCH_INDIRECT: 0.000282
BRANCH_CONDITIONAL: 1.9
BRANCH_DIRECT_CALL: 3.33e-06
BRANCH_INDIRECT_CALL: 4.83e-05
BRANCH_RETURN: 3.33e-05

LLC TOTAL        ACCESS:     259671 HIT:     225527 MISS:      34144
LLC LOAD         ACCESS:      59445 HIT:      50086 MISS:       9359
LLC RFO          ACCESS:      99913 HIT:      76223 MISS:      23690
LLC PREFETCH     ACCESS:          0 HIT:          0 MISS:          0
LLC WRITE        ACCESS:     100308 HIT:      99218 MISS:       1090
LLC TRANSLATION  ACCESS:          5 HIT:          0 MISS:          5
LLC PREFETCH REQUESTED:          0 ISSUED:          0 USEFUL:          0 USELESS:          0
LLC AVERAGE MISS LATENCY: 622.9 cycles
cpu0_DTLB TOTAL        ACCESS:   78811992 HIT:   78801220 MISS:      10772
cpu0_DTLB LOAD         ACCESS:   78811992 HIT:   78801220 MISS:      10772
cpu0_DTLB RFO          ACCESS:          0 HIT:          0 MISS:          0
cpu0_DTLB PREFETCH     ACCESS:          0 HIT:          0 MISS:          0
cpu0_DTLB WRITE        ACCESS:          0 HIT:          0 MISS:          0
cpu0_DTLB TRANSLATION  ACCESS:          0 HIT:          0 MISS:          0
cpu0_DTLB PREFETCH REQUESTED:          0 ISSUED:          0 USEFUL:          0 USELESS:          0
cpu0_DTLB AVERAGE MISS LATENCY: 5.879 cycles
cpu0_ITLB TOTAL        ACCESS:       5634 HIT:       5394 MISS:        240
cpu0_ITLB LOAD         ACCESS:       5634 HIT:       5394 MISS:        240
cpu0_ITLB RFO          ACCESS:          0 HIT:          0 MISS:          0
cpu0_ITLB PREFETCH     ACCESS:          0 HIT:          0 MISS:          0
cpu0_ITLB WRITE        ACCESS:          0 HIT:          0 MISS:          0
cpu0_ITLB TRANSLATION  ACCESS:          0 HIT:          0 MISS:          0
cpu0_ITLB PREFETCH REQUESTED:          0 ISSUED:          0 USEFUL:          0 USELESS:          0
cpu0_ITLB AVERAGE MISS LATENCY: 5.771 cycles
cpu0_L1D TOTAL        ACCESS:   97909856 HIT:   96512905 MISS:    1396951
cpu0_L1D LOAD         ACCESS:   38691579 HIT:   38339737 MISS:     351842
cpu0_L1D RFO          ACCESS:          0 HIT:          0 MISS:          0
cpu0_L1D PREFETCH     ACCESS:          0 HIT:          0 MISS:          0
cpu0_L1D WRITE        ACCESS:   59218019 HIT:   58172915 MISS:    1045104
cpu0_L1D TRANSLATION  ACCESS:        258 HIT:        253 MISS:          5
cpu0_L1D PREFETCH REQUESTED:          0 ISSUED:          0 USEFUL:          0 USELESS:          0
cpu0_L1D AVERAGE MISS LATENCY: 14.29 cycles
cpu0_L1I TOTAL        ACCESS:       6423 HIT:       3969 MISS:       2454
cpu0_L1I LOAD         ACCESS:       6423 HIT:       3969 MISS:       2454
cpu0_L1I RFO          ACCESS:          0 HIT:          0 MISS:          0
cpu0_L1I PREFETCH     ACCESS:          0 HIT:          0 MISS:          0
cpu0_L1I WRITE        ACCESS:          0 HIT:          0 MISS:          0
cpu0_L1I TRANSLATION  ACCESS:          0 HIT:          0 MISS:          0
cpu0_L1I PREFETCH REQUESTED:          0 ISSUED:          0 USEFUL:          0 USELESS:          0
cpu0_L1I AVERAGE MISS LATENCY: 466.6 cycles
cpu0_L2C TOTAL        ACCESS:     265736 HIT:     106349 MISS:     159387
cpu0_L2C LOAD         ACCESS:      63733 HIT:       4288 MISS:      59445
cpu0_L2C RFO          ACCESS:     100732 HIT:        819 MISS:      99913
cpu0_L2C PREFETCH     ACCESS:          0 HIT:          0 MISS:          0
cpu0_L2C WRITE        ACCESS:     101266 HIT:     101242 MISS:         24
cpu0_L2C TRANSLATION  ACCESS:          5 HIT:          0 MISS:          5
cpu0_L2C PREFETCH REQUESTED:          0 ISSUED:          0 USEFUL:          0 USELESS:          0
cpu0_L2C AVERAGE MISS LATENCY: 153.6 cycles
cpu0_STLB TOTAL        ACCESS:       3911 HIT:       3654 MISS:        257
cpu0_STLB LOAD         ACCESS:       3911 HIT:       3654 MISS:        257
cpu0_STLB RFO          ACCESS:          0 HIT:          0 MISS:          0
cpu0_STLB PREFETCH     ACCESS:          0 HIT:          0 MISS:          0
cpu0_STLB WRITE        ACCESS:          0 HIT:          0 MISS:          0
cpu0_STLB TRANSLATION  ACCESS:          0 HIT:          0 MISS:          0
cpu0_STLB PREFETCH REQUESTED:          0 ISSUED:          0 USEFUL:          0 USELESS:          0
cpu0_STLB AVERAGE MISS LATENCY: 218.5 cycles

DRAM Statistics

Channel 0 RQ ROW_BUFFER_HIT:      17699
  ROW_BUFFER_MISS:      15354
 AVG DBUS CONGESTED CYCLE: 3.953
WQ ROW_BUFFER_HIT: Channel 0 
  ROW_BUFFER_MISS:       1579
  FULL:      10135
Final OPTGen Hits: 2523
Final OPTGen Access: 3472
Final OPTGEN Hit Rate: 72.6671
