WARNING: physical memory size is smaller than virtual memory size.

*** ChampSim Multicore Out-of-Order Simulator ***
Warmup Instructions: 50000000
Simulation Instructions: 600000000
Number of CPUs: 1
Page size: 4096

Off-chip DRAM Size: 4 GiB Channels: 1 Width: 64-bit Data Race: 3200 MT/s
Heartbeat CPU 0 instructions: 10000002 cycles: 2565786 heartbeat IPC: 3.897 cumulative IPC: 3.897 (Simulation time: 00 hr 00 min 46 sec)
Heartbeat CPU 0 instructions: 20000000 cycles: 5131275 heartbeat IPC: 3.898 cumulative IPC: 3.898 (Simulation time: 00 hr 01 min 26 sec)
Heartbeat CPU 0 instructions: 30000000 cycles: 7631275 heartbeat IPC: 4 cumulative IPC: 3.931 (Simulation time: 00 hr 02 min 06 sec)
Heartbeat CPU 0 instructions: 40000000 cycles: 10131275 heartbeat IPC: 4 cumulative IPC: 3.948 (Simulation time: 00 hr 02 min 52 sec)
Heartbeat CPU 0 instructions: 50000000 cycles: 12631275 heartbeat IPC: 4 cumulative IPC: 3.958 (Simulation time: 00 hr 03 min 41 sec)
Warmup finished CPU 0 instructions: 50000000 cycles: 12631276 cumulative IPC: 3.958 (Simulation time: 00 hr 03 min 41 sec)
Warmup complete CPU 0 instructions: 50000000 cycles: 12631276 cumulative IPC: 3.958 (Simulation time: 00 hr 03 min 41 sec)
Heartbeat CPU 0 instructions: 60000000 cycles: 16058853 heartbeat IPC: 2.918 cumulative IPC: 2.918 (Simulation time: 00 hr 04 min 28 sec)
Heartbeat CPU 0 instructions: 70000000 cycles: 19488287 heartbeat IPC: 2.916 cumulative IPC: 2.917 (Simulation time: 00 hr 05 min 11 sec)
Heartbeat CPU 0 instructions: 80000004 cycles: 22914705 heartbeat IPC: 2.919 cumulative IPC: 2.917 (Simulation time: 00 hr 05 min 55 sec)
Heartbeat CPU 0 instructions: 90000000 cycles: 26342393 heartbeat IPC: 2.917 cumulative IPC: 2.917 (Simulation time: 00 hr 06 min 37 sec)
Heartbeat CPU 0 instructions: 100000003 cycles: 29773620 heartbeat IPC: 2.914 cumulative IPC: 2.917 (Simulation time: 00 hr 07 min 21 sec)
Heartbeat CPU 0 instructions: 110000000 cycles: 33199685 heartbeat IPC: 2.919 cumulative IPC: 2.917 (Simulation time: 00 hr 08 min 02 sec)
Heartbeat CPU 0 instructions: 120000001 cycles: 36624208 heartbeat IPC: 2.92 cumulative IPC: 2.918 (Simulation time: 00 hr 08 min 44 sec)
Heartbeat CPU 0 instructions: 130000001 cycles: 40050789 heartbeat IPC: 2.918 cumulative IPC: 2.918 (Simulation time: 00 hr 09 min 25 sec)
Heartbeat CPU 0 instructions: 140000002 cycles: 43477137 heartbeat IPC: 2.919 cumulative IPC: 2.918 (Simulation time: 00 hr 10 min 09 sec)
Heartbeat CPU 0 instructions: 150000000 cycles: 46902216 heartbeat IPC: 2.92 cumulative IPC: 2.918 (Simulation time: 00 hr 10 min 51 sec)
Heartbeat CPU 0 instructions: 160000002 cycles: 50328723 heartbeat IPC: 2.918 cumulative IPC: 2.918 (Simulation time: 00 hr 11 min 34 sec)
Heartbeat CPU 0 instructions: 170000000 cycles: 53756210 heartbeat IPC: 2.918 cumulative IPC: 2.918 (Simulation time: 00 hr 12 min 14 sec)
Heartbeat CPU 0 instructions: 180000004 cycles: 57182236 heartbeat IPC: 2.919 cumulative IPC: 2.918 (Simulation time: 00 hr 12 min 57 sec)
Heartbeat CPU 0 instructions: 190000001 cycles: 60608943 heartbeat IPC: 2.918 cumulative IPC: 2.918 (Simulation time: 00 hr 13 min 36 sec)
Heartbeat CPU 0 instructions: 200000001 cycles: 64034699 heartbeat IPC: 2.919 cumulative IPC: 2.918 (Simulation time: 00 hr 14 min 15 sec)
Heartbeat CPU 0 instructions: 210000004 cycles: 67460594 heartbeat IPC: 2.919 cumulative IPC: 2.918 (Simulation time: 00 hr 14 min 57 sec)
Heartbeat CPU 0 instructions: 220000002 cycles: 70888100 heartbeat IPC: 2.918 cumulative IPC: 2.918 (Simulation time: 00 hr 15 min 37 sec)
Heartbeat CPU 0 instructions: 230000001 cycles: 74331454 heartbeat IPC: 2.904 cumulative IPC: 2.917 (Simulation time: 00 hr 16 min 22 sec)
Heartbeat CPU 0 instructions: 240000003 cycles: 82781291 heartbeat IPC: 1.183 cumulative IPC: 2.708 (Simulation time: 00 hr 17 min 43 sec)
Heartbeat CPU 0 instructions: 250000003 cycles: 86214966 heartbeat IPC: 2.912 cumulative IPC: 2.718 (Simulation time: 00 hr 18 min 21 sec)
Heartbeat CPU 0 instructions: 260000000 cycles: 89641704 heartbeat IPC: 2.918 cumulative IPC: 2.727 (Simulation time: 00 hr 19 min 01 sec)
Heartbeat CPU 0 instructions: 270000004 cycles: 93067699 heartbeat IPC: 2.919 cumulative IPC: 2.735 (Simulation time: 00 hr 19 min 40 sec)
Heartbeat CPU 0 instructions: 280000000 cycles: 96495526 heartbeat IPC: 2.917 cumulative IPC: 2.743 (Simulation time: 00 hr 20 min 20 sec)
Heartbeat CPU 0 instructions: 290000002 cycles: 99923661 heartbeat IPC: 2.917 cumulative IPC: 2.749 (Simulation time: 00 hr 21 min 00 sec)
Heartbeat CPU 0 instructions: 300000004 cycles: 103347227 heartbeat IPC: 2.921 cumulative IPC: 2.756 (Simulation time: 00 hr 21 min 40 sec)
Heartbeat CPU 0 instructions: 310000002 cycles: 106775350 heartbeat IPC: 2.917 cumulative IPC: 2.762 (Simulation time: 00 hr 22 min 19 sec)
Heartbeat CPU 0 instructions: 320000000 cycles: 110203160 heartbeat IPC: 2.917 cumulative IPC: 2.767 (Simulation time: 00 hr 22 min 58 sec)
Heartbeat CPU 0 instructions: 330000004 cycles: 113629909 heartbeat IPC: 2.918 cumulative IPC: 2.772 (Simulation time: 00 hr 23 min 37 sec)
Heartbeat CPU 0 instructions: 340000000 cycles: 117057166 heartbeat IPC: 2.918 cumulative IPC: 2.777 (Simulation time: 00 hr 24 min 16 sec)
Heartbeat CPU 0 instructions: 350000003 cycles: 120486087 heartbeat IPC: 2.916 cumulative IPC: 2.782 (Simulation time: 00 hr 24 min 55 sec)
Heartbeat CPU 0 instructions: 360000003 cycles: 123913735 heartbeat IPC: 2.917 cumulative IPC: 2.786 (Simulation time: 00 hr 25 min 33 sec)
Heartbeat CPU 0 instructions: 370000004 cycles: 127340127 heartbeat IPC: 2.919 cumulative IPC: 2.79 (Simulation time: 00 hr 26 min 12 sec)
Heartbeat CPU 0 instructions: 380000003 cycles: 130765661 heartbeat IPC: 2.919 cumulative IPC: 2.793 (Simulation time: 00 hr 26 min 51 sec)
Heartbeat CPU 0 instructions: 390000000 cycles: 134186640 heartbeat IPC: 2.923 cumulative IPC: 2.797 (Simulation time: 00 hr 27 min 31 sec)
Heartbeat CPU 0 instructions: 400000002 cycles: 137614020 heartbeat IPC: 2.918 cumulative IPC: 2.8 (Simulation time: 00 hr 28 min 11 sec)
Heartbeat CPU 0 instructions: 410000003 cycles: 141041516 heartbeat IPC: 2.918 cumulative IPC: 2.804 (Simulation time: 00 hr 28 min 50 sec)
Heartbeat CPU 0 instructions: 420000001 cycles: 144469344 heartbeat IPC: 2.917 cumulative IPC: 2.806 (Simulation time: 00 hr 29 min 29 sec)
Heartbeat CPU 0 instructions: 430000001 cycles: 147898094 heartbeat IPC: 2.917 cumulative IPC: 2.809 (Simulation time: 00 hr 30 min 09 sec)
Heartbeat CPU 0 instructions: 440000002 cycles: 151322654 heartbeat IPC: 2.92 cumulative IPC: 2.812 (Simulation time: 00 hr 30 min 49 sec)
Heartbeat CPU 0 instructions: 450000001 cycles: 154584419 heartbeat IPC: 3.066 cumulative IPC: 2.818 (Simulation time: 00 hr 31 min 33 sec)
Heartbeat CPU 0 instructions: 460000002 cycles: 163033171 heartbeat IPC: 1.184 cumulative IPC: 2.726 (Simulation time: 00 hr 32 min 56 sec)
Heartbeat CPU 0 instructions: 470000004 cycles: 166456481 heartbeat IPC: 2.921 cumulative IPC: 2.73 (Simulation time: 00 hr 33 min 35 sec)
Heartbeat CPU 0 instructions: 480000000 cycles: 169884708 heartbeat IPC: 2.917 cumulative IPC: 2.734 (Simulation time: 00 hr 34 min 15 sec)
Heartbeat CPU 0 instructions: 490000000 cycles: 173310083 heartbeat IPC: 2.919 cumulative IPC: 2.738 (Simulation time: 00 hr 34 min 55 sec)
Heartbeat CPU 0 instructions: 500000002 cycles: 176736845 heartbeat IPC: 2.918 cumulative IPC: 2.742 (Simulation time: 00 hr 35 min 35 sec)
Heartbeat CPU 0 instructions: 510000001 cycles: 180165778 heartbeat IPC: 2.916 cumulative IPC: 2.746 (Simulation time: 00 hr 36 min 15 sec)
Heartbeat CPU 0 instructions: 520000003 cycles: 183591109 heartbeat IPC: 2.919 cumulative IPC: 2.749 (Simulation time: 00 hr 36 min 54 sec)
Heartbeat CPU 0 instructions: 530000002 cycles: 187014979 heartbeat IPC: 2.921 cumulative IPC: 2.753 (Simulation time: 00 hr 37 min 35 sec)
Heartbeat CPU 0 instructions: 540000000 cycles: 190443678 heartbeat IPC: 2.917 cumulative IPC: 2.756 (Simulation time: 00 hr 38 min 15 sec)
Heartbeat CPU 0 instructions: 550000000 cycles: 193869919 heartbeat IPC: 2.919 cumulative IPC: 2.759 (Simulation time: 00 hr 38 min 55 sec)
Heartbeat CPU 0 instructions: 560000001 cycles: 197294668 heartbeat IPC: 2.92 cumulative IPC: 2.762 (Simulation time: 00 hr 39 min 34 sec)
Heartbeat CPU 0 instructions: 570000001 cycles: 200720150 heartbeat IPC: 2.919 cumulative IPC: 2.765 (Simulation time: 00 hr 40 min 13 sec)
Heartbeat CPU 0 instructions: 580000000 cycles: 204149939 heartbeat IPC: 2.916 cumulative IPC: 2.767 (Simulation time: 00 hr 40 min 53 sec)
Heartbeat CPU 0 instructions: 590000003 cycles: 207576324 heartbeat IPC: 2.919 cumulative IPC: 2.77 (Simulation time: 00 hr 41 min 33 sec)
*** Reached end of trace: (0, "traces/l1l2cache.champsimtrace")
Heartbeat CPU 0 instructions: 600000001 cycles: 211004460 heartbeat IPC: 2.917 cumulative IPC: 2.773 (Simulation time: 00 hr 42 min 12 sec)
Heartbeat CPU 0 instructions: 610000000 cycles: 214182227 heartbeat IPC: 3.147 cumulative IPC: 2.778 (Simulation time: 00 hr 42 min 55 sec)
Heartbeat CPU 0 instructions: 620000004 cycles: 216934592 heartbeat IPC: 3.633 cumulative IPC: 2.79 (Simulation time: 00 hr 43 min 36 sec)
Heartbeat CPU 0 instructions: 630000004 cycles: 220357668 heartbeat IPC: 2.921 cumulative IPC: 2.792 (Simulation time: 00 hr 44 min 15 sec)
Heartbeat CPU 0 instructions: 640000000 cycles: 223782596 heartbeat IPC: 2.92 cumulative IPC: 2.794 (Simulation time: 00 hr 44 min 55 sec)
Heartbeat CPU 0 instructions: 650000004 cycles: 227212000 heartbeat IPC: 2.916 cumulative IPC: 2.796 (Simulation time: 00 hr 45 min 36 sec)
Simulation finished CPU 0 instructions: 600000004 cycles: 214580725 cumulative IPC: 2.796 (Simulation time: 00 hr 45 min 36 sec)
Simulation complete CPU 0 instructions: 600000004 cycles: 214580725 cumulative IPC: 2.796 (Simulation time: 00 hr 45 min 36 sec)

ChampSim completed all CPUs

=== Simulation ===
CPU 0 runs traces/l1l2cache.champsimtrace
Region of Interest Statistics

CPU 0 cumulative IPC: 2.796 instructions: 600000004 cycles: 214580725
CPU 0 Branch Prediction Accuracy: 93.04% MPKI: 5.913 Average ROB Occupancy at Mispredict: 67.86
Branch type MPKI
BRANCH_DIRECT_JUMP: 9.5e-05
BRANCH_INDIRECT: 0.000282
BRANCH_CONDITIONAL: 5.91
BRANCH_DIRECT_CALL: 3.33e-06
BRANCH_INDIRECT_CALL: 4.83e-05
BRANCH_RETURN: 3.33e-05

LLC TOTAL        ACCESS:     259668 HIT:     139033 MISS:     120635
LLC LOAD         ACCESS:      59445 HIT:      35090 MISS:      24355
LLC RFO          ACCESS:      99913 HIT:      49019 MISS:      50894
LLC PREFETCH     ACCESS:          0 HIT:          0 MISS:          0
LLC WRITE        ACCESS:     100305 HIT:      54924 MISS:      45381
LLC TRANSLATION  ACCESS:          5 HIT:          0 MISS:          5
LLC PREFETCH REQUESTED:          0 ISSUED:          0 USEFUL:          0 USELESS:          0
LLC AVERAGE MISS LATENCY: 336.1 cycles
cpu0_DTLB TOTAL        ACCESS:   82372307 HIT:   82361458 MISS:      10849
cpu0_DTLB LOAD         ACCESS:   82372307 HIT:   82361458 MISS:      10849
cpu0_DTLB RFO          ACCESS:          0 HIT:          0 MISS:          0
cpu0_DTLB PREFETCH     ACCESS:          0 HIT:          0 MISS:          0
cpu0_DTLB WRITE        ACCESS:          0 HIT:          0 MISS:          0
cpu0_DTLB TRANSLATION  ACCESS:          0 HIT:          0 MISS:          0
cpu0_DTLB PREFETCH REQUESTED:          0 ISSUED:          0 USEFUL:          0 USELESS:          0
cpu0_DTLB AVERAGE MISS LATENCY: 5.881 cycles
cpu0_ITLB TOTAL        ACCESS:       5550 HIT:       5332 MISS:        218
cpu0_ITLB LOAD         ACCESS:       5550 HIT:       5332 MISS:        218
cpu0_ITLB RFO          ACCESS:          0 HIT:          0 MISS:          0
cpu0_ITLB PREFETCH     ACCESS:          0 HIT:          0 MISS:          0
cpu0_ITLB WRITE        ACCESS:          0 HIT:          0 MISS:          0
cpu0_ITLB TRANSLATION  ACCESS:          0 HIT:          0 MISS:          0
cpu0_ITLB PREFETCH REQUESTED:          0 ISSUED:          0 USEFUL:          0 USELESS:          0
cpu0_ITLB AVERAGE MISS LATENCY: 6.459 cycles
cpu0_L1D TOTAL        ACCESS:  104639435 HIT:  102852231 MISS:    1787204
cpu0_L1D LOAD         ACCESS:   45412879 HIT:   44915656 MISS:     497223
cpu0_L1D RFO          ACCESS:          0 HIT:          0 MISS:          0
cpu0_L1D PREFETCH     ACCESS:          0 HIT:          0 MISS:          0
cpu0_L1D WRITE        ACCESS:   59226298 HIT:   57936322 MISS:    1289976
cpu0_L1D TRANSLATION  ACCESS:        258 HIT:        253 MISS:          5
cpu0_L1D PREFETCH REQUESTED:          0 ISSUED:          0 USEFUL:          0 USELESS:          0
cpu0_L1D AVERAGE MISS LATENCY: 21.37 cycles
cpu0_L1I TOTAL        ACCESS:       6315 HIT:       4049 MISS:       2266
cpu0_L1I LOAD         ACCESS:       6315 HIT:       4049 MISS:       2266
cpu0_L1I RFO          ACCESS:          0 HIT:          0 MISS:          0
cpu0_L1I PREFETCH     ACCESS:          0 HIT:          0 MISS:          0
cpu0_L1I WRITE        ACCESS:          0 HIT:          0 MISS:          0
cpu0_L1I TRANSLATION  ACCESS:          0 HIT:          0 MISS:          0
cpu0_L1I PREFETCH REQUESTED:          0 ISSUED:          0 USEFUL:          0 USELESS:          0
cpu0_L1I AVERAGE MISS LATENCY: 121.1 cycles
cpu0_L2C TOTAL        ACCESS:     265757 HIT:     106374 MISS:     159383
cpu0_L2C LOAD         ACCESS:      63736 HIT:       4291 MISS:      59445
cpu0_L2C RFO          ACCESS:     100748 HIT:        835 MISS:      99913
cpu0_L2C PREFETCH     ACCESS:          0 HIT:          0 MISS:          0
cpu0_L2C WRITE        ACCESS:     101268 HIT:     101248 MISS:         20
cpu0_L2C TRANSLATION  ACCESS:          5 HIT:          0 MISS:          5
cpu0_L2C PREFETCH REQUESTED:          0 ISSUED:          0 USEFUL:          0 USELESS:          0
cpu0_L2C AVERAGE MISS LATENCY: 274.8 cycles
cpu0_STLB TOTAL        ACCESS:       3914 HIT:       3657 MISS:        257
cpu0_STLB LOAD         ACCESS:       3914 HIT:       3657 MISS:        257
cpu0_STLB RFO          ACCESS:          0 HIT:          0 MISS:          0
cpu0_STLB PREFETCH     ACCESS:          0 HIT:          0 MISS:          0
cpu0_STLB WRITE        ACCESS:          0 HIT:          0 MISS:          0
cpu0_STLB TRANSLATION  ACCESS:          0 HIT:          0 MISS:          0
cpu0_STLB PREFETCH REQUESTED:          0 ISSUED:          0 USEFUL:          0 USELESS:          0
cpu0_STLB AVERAGE MISS LATENCY: 217.8 cycles

DRAM Statistics

Channel 0 RQ ROW_BUFFER_HIT:      37191
  ROW_BUFFER_MISS:      37983
 AVG DBUS CONGESTED CYCLE: 3.935
WQ ROW_BUFFER_HIT: Channel 0 
  ROW_BUFFER_MISS:      26911
  FULL:      19028
