WARNING: physical memory size is smaller than virtual memory size.

*** ChampSim Multicore Out-of-Order Simulator ***
Warmup Instructions: 50000000
Simulation Instructions: 600000000
Number of CPUs: 1
Page size: 4096

Off-chip DRAM Size: 4 GiB Channels: 1 Width: 64-bit Data Race: 3200 MT/s
Heartbeat CPU 0 instructions: 10000000 cycles: 2565785 heartbeat IPC: 3.897 cumulative IPC: 3.897 (Simulation time: 00 hr 00 min 34 sec)
Heartbeat CPU 0 instructions: 20000000 cycles: 5131274 heartbeat IPC: 3.898 cumulative IPC: 3.898 (Simulation time: 00 hr 01 min 07 sec)
Heartbeat CPU 0 instructions: 30000000 cycles: 7631274 heartbeat IPC: 4 cumulative IPC: 3.931 (Simulation time: 00 hr 01 min 38 sec)
Heartbeat CPU 0 instructions: 40000000 cycles: 10131274 heartbeat IPC: 4 cumulative IPC: 3.948 (Simulation time: 00 hr 02 min 08 sec)
Heartbeat CPU 0 instructions: 50000000 cycles: 12631274 heartbeat IPC: 4 cumulative IPC: 3.958 (Simulation time: 00 hr 02 min 40 sec)
Warmup finished CPU 0 instructions: 50000000 cycles: 12631275 cumulative IPC: 3.958 (Simulation time: 00 hr 02 min 40 sec)
Warmup complete CPU 0 instructions: 50000000 cycles: 12631275 cumulative IPC: 3.958 (Simulation time: 00 hr 02 min 40 sec)
Heartbeat CPU 0 instructions: 60000000 cycles: 16058852 heartbeat IPC: 2.918 cumulative IPC: 2.918 (Simulation time: 00 hr 03 min 18 sec)
Heartbeat CPU 0 instructions: 70000000 cycles: 19488286 heartbeat IPC: 2.916 cumulative IPC: 2.917 (Simulation time: 00 hr 03 min 58 sec)
Heartbeat CPU 0 instructions: 80000004 cycles: 22914704 heartbeat IPC: 2.919 cumulative IPC: 2.917 (Simulation time: 00 hr 04 min 38 sec)
Heartbeat CPU 0 instructions: 90000000 cycles: 26342392 heartbeat IPC: 2.917 cumulative IPC: 2.917 (Simulation time: 00 hr 05 min 19 sec)
Heartbeat CPU 0 instructions: 100000003 cycles: 29773619 heartbeat IPC: 2.914 cumulative IPC: 2.917 (Simulation time: 00 hr 05 min 59 sec)
Heartbeat CPU 0 instructions: 110000000 cycles: 33199684 heartbeat IPC: 2.919 cumulative IPC: 2.917 (Simulation time: 00 hr 06 min 40 sec)
Heartbeat CPU 0 instructions: 120000001 cycles: 36624207 heartbeat IPC: 2.92 cumulative IPC: 2.918 (Simulation time: 00 hr 07 min 19 sec)
Heartbeat CPU 0 instructions: 130000001 cycles: 40050788 heartbeat IPC: 2.918 cumulative IPC: 2.918 (Simulation time: 00 hr 07 min 59 sec)
Heartbeat CPU 0 instructions: 140000002 cycles: 43477136 heartbeat IPC: 2.919 cumulative IPC: 2.918 (Simulation time: 00 hr 08 min 40 sec)
Heartbeat CPU 0 instructions: 150000000 cycles: 46902215 heartbeat IPC: 2.92 cumulative IPC: 2.918 (Simulation time: 00 hr 09 min 21 sec)
Heartbeat CPU 0 instructions: 160000002 cycles: 50328722 heartbeat IPC: 2.918 cumulative IPC: 2.918 (Simulation time: 00 hr 10 min 00 sec)
Heartbeat CPU 0 instructions: 170000000 cycles: 53756209 heartbeat IPC: 2.918 cumulative IPC: 2.918 (Simulation time: 00 hr 10 min 39 sec)
Heartbeat CPU 0 instructions: 180000004 cycles: 57182235 heartbeat IPC: 2.919 cumulative IPC: 2.918 (Simulation time: 00 hr 11 min 22 sec)
Heartbeat CPU 0 instructions: 190000001 cycles: 60608942 heartbeat IPC: 2.918 cumulative IPC: 2.918 (Simulation time: 00 hr 12 min 00 sec)
Heartbeat CPU 0 instructions: 200000001 cycles: 64034698 heartbeat IPC: 2.919 cumulative IPC: 2.918 (Simulation time: 00 hr 12 min 41 sec)
Heartbeat CPU 0 instructions: 210000004 cycles: 67460593 heartbeat IPC: 2.919 cumulative IPC: 2.918 (Simulation time: 00 hr 13 min 20 sec)
Heartbeat CPU 0 instructions: 220000002 cycles: 70888099 heartbeat IPC: 2.918 cumulative IPC: 2.918 (Simulation time: 00 hr 13 min 59 sec)
Heartbeat CPU 0 instructions: 230000001 cycles: 74753398 heartbeat IPC: 2.587 cumulative IPC: 2.898 (Simulation time: 00 hr 14 min 48 sec)
Heartbeat CPU 0 instructions: 240000003 cycles: 78109498 heartbeat IPC: 2.98 cumulative IPC: 2.902 (Simulation time: 00 hr 15 min 34 sec)
Heartbeat CPU 0 instructions: 250000003 cycles: 81543173 heartbeat IPC: 2.912 cumulative IPC: 2.902 (Simulation time: 00 hr 16 min 13 sec)
Heartbeat CPU 0 instructions: 260000000 cycles: 84969911 heartbeat IPC: 2.918 cumulative IPC: 2.903 (Simulation time: 00 hr 16 min 52 sec)
Heartbeat CPU 0 instructions: 270000004 cycles: 88395906 heartbeat IPC: 2.919 cumulative IPC: 2.904 (Simulation time: 00 hr 17 min 32 sec)
Heartbeat CPU 0 instructions: 280000000 cycles: 91823733 heartbeat IPC: 2.917 cumulative IPC: 2.904 (Simulation time: 00 hr 18 min 11 sec)
Heartbeat CPU 0 instructions: 290000002 cycles: 95251868 heartbeat IPC: 2.917 cumulative IPC: 2.905 (Simulation time: 00 hr 18 min 50 sec)
Heartbeat CPU 0 instructions: 300000004 cycles: 98675434 heartbeat IPC: 2.921 cumulative IPC: 2.905 (Simulation time: 00 hr 19 min 29 sec)
Heartbeat CPU 0 instructions: 310000002 cycles: 102103557 heartbeat IPC: 2.917 cumulative IPC: 2.906 (Simulation time: 00 hr 20 min 06 sec)
Heartbeat CPU 0 instructions: 320000000 cycles: 105531367 heartbeat IPC: 2.917 cumulative IPC: 2.906 (Simulation time: 00 hr 20 min 44 sec)
Heartbeat CPU 0 instructions: 330000004 cycles: 108958116 heartbeat IPC: 2.918 cumulative IPC: 2.907 (Simulation time: 00 hr 21 min 22 sec)
Heartbeat CPU 0 instructions: 340000000 cycles: 112385373 heartbeat IPC: 2.918 cumulative IPC: 2.907 (Simulation time: 00 hr 22 min 00 sec)
Heartbeat CPU 0 instructions: 350000003 cycles: 115814294 heartbeat IPC: 2.916 cumulative IPC: 2.907 (Simulation time: 00 hr 22 min 38 sec)
Heartbeat CPU 0 instructions: 360000003 cycles: 119241942 heartbeat IPC: 2.917 cumulative IPC: 2.908 (Simulation time: 00 hr 23 min 15 sec)
Heartbeat CPU 0 instructions: 370000004 cycles: 122668334 heartbeat IPC: 2.919 cumulative IPC: 2.908 (Simulation time: 00 hr 23 min 53 sec)
Heartbeat CPU 0 instructions: 380000003 cycles: 126093868 heartbeat IPC: 2.919 cumulative IPC: 2.908 (Simulation time: 00 hr 24 min 31 sec)
Heartbeat CPU 0 instructions: 390000000 cycles: 129514847 heartbeat IPC: 2.923 cumulative IPC: 2.909 (Simulation time: 00 hr 25 min 08 sec)
Heartbeat CPU 0 instructions: 400000002 cycles: 132942227 heartbeat IPC: 2.918 cumulative IPC: 2.909 (Simulation time: 00 hr 25 min 45 sec)
Heartbeat CPU 0 instructions: 410000003 cycles: 136369723 heartbeat IPC: 2.918 cumulative IPC: 2.909 (Simulation time: 00 hr 26 min 21 sec)
Heartbeat CPU 0 instructions: 420000001 cycles: 139797551 heartbeat IPC: 2.917 cumulative IPC: 2.91 (Simulation time: 00 hr 26 min 58 sec)
Heartbeat CPU 0 instructions: 430000001 cycles: 143226301 heartbeat IPC: 2.917 cumulative IPC: 2.91 (Simulation time: 00 hr 27 min 35 sec)
Heartbeat CPU 0 instructions: 440000002 cycles: 146650861 heartbeat IPC: 2.92 cumulative IPC: 2.91 (Simulation time: 00 hr 28 min 12 sec)
Heartbeat CPU 0 instructions: 450000001 cycles: 149422053 heartbeat IPC: 3.609 cumulative IPC: 2.924 (Simulation time: 00 hr 28 min 48 sec)
Heartbeat CPU 0 instructions: 460000002 cycles: 152155371 heartbeat IPC: 3.659 cumulative IPC: 2.939 (Simulation time: 00 hr 29 min 26 sec)
Heartbeat CPU 0 instructions: 470000004 cycles: 155578681 heartbeat IPC: 2.921 cumulative IPC: 2.938 (Simulation time: 00 hr 30 min 03 sec)
Heartbeat CPU 0 instructions: 480000000 cycles: 159006908 heartbeat IPC: 2.917 cumulative IPC: 2.938 (Simulation time: 00 hr 30 min 41 sec)
Heartbeat CPU 0 instructions: 490000000 cycles: 162432283 heartbeat IPC: 2.919 cumulative IPC: 2.937 (Simulation time: 00 hr 31 min 19 sec)
Heartbeat CPU 0 instructions: 500000002 cycles: 165859045 heartbeat IPC: 2.918 cumulative IPC: 2.937 (Simulation time: 00 hr 31 min 56 sec)
Heartbeat CPU 0 instructions: 510000001 cycles: 169287978 heartbeat IPC: 2.916 cumulative IPC: 2.936 (Simulation time: 00 hr 32 min 33 sec)
Heartbeat CPU 0 instructions: 520000003 cycles: 172713309 heartbeat IPC: 2.919 cumulative IPC: 2.936 (Simulation time: 00 hr 33 min 10 sec)
Heartbeat CPU 0 instructions: 530000002 cycles: 176137179 heartbeat IPC: 2.921 cumulative IPC: 2.936 (Simulation time: 00 hr 33 min 47 sec)
Heartbeat CPU 0 instructions: 540000000 cycles: 179565878 heartbeat IPC: 2.917 cumulative IPC: 2.935 (Simulation time: 00 hr 34 min 24 sec)
Heartbeat CPU 0 instructions: 550000000 cycles: 182992119 heartbeat IPC: 2.919 cumulative IPC: 2.935 (Simulation time: 00 hr 35 min 01 sec)
Heartbeat CPU 0 instructions: 560000001 cycles: 186416868 heartbeat IPC: 2.92 cumulative IPC: 2.935 (Simulation time: 00 hr 35 min 38 sec)
Heartbeat CPU 0 instructions: 570000001 cycles: 189842350 heartbeat IPC: 2.919 cumulative IPC: 2.934 (Simulation time: 00 hr 36 min 15 sec)
Heartbeat CPU 0 instructions: 580000000 cycles: 193272139 heartbeat IPC: 2.916 cumulative IPC: 2.934 (Simulation time: 00 hr 36 min 52 sec)
Heartbeat CPU 0 instructions: 590000003 cycles: 196698524 heartbeat IPC: 2.919 cumulative IPC: 2.934 (Simulation time: 00 hr 37 min 29 sec)
*** Reached end of trace: (0, "traces/l1l2cache.champsimtrace")
Heartbeat CPU 0 instructions: 600000001 cycles: 200126660 heartbeat IPC: 2.917 cumulative IPC: 2.933 (Simulation time: 00 hr 38 min 05 sec)
Heartbeat CPU 0 instructions: 610000001 cycles: 209056690 heartbeat IPC: 1.12 cumulative IPC: 2.851 (Simulation time: 00 hr 39 min 22 sec)
Heartbeat CPU 0 instructions: 620000004 cycles: 212042702 heartbeat IPC: 3.349 cumulative IPC: 2.858 (Simulation time: 00 hr 40 min 02 sec)
Heartbeat CPU 0 instructions: 630000004 cycles: 215465778 heartbeat IPC: 2.921 cumulative IPC: 2.859 (Simulation time: 00 hr 40 min 38 sec)
Heartbeat CPU 0 instructions: 640000000 cycles: 218890706 heartbeat IPC: 2.92 cumulative IPC: 2.86 (Simulation time: 00 hr 41 min 15 sec)
Heartbeat CPU 0 instructions: 650000004 cycles: 222320110 heartbeat IPC: 2.916 cumulative IPC: 2.861 (Simulation time: 00 hr 41 min 51 sec)
Simulation finished CPU 0 instructions: 600000004 cycles: 209688836 cumulative IPC: 2.861 (Simulation time: 00 hr 41 min 51 sec)
Simulation complete CPU 0 instructions: 600000004 cycles: 209688836 cumulative IPC: 2.861 (Simulation time: 00 hr 41 min 51 sec)

ChampSim completed all CPUs

=== Simulation ===
CPU 0 runs traces/l1l2cache.champsimtrace
Region of Interest Statistics

CPU 0 cumulative IPC: 2.861 instructions: 600000004 cycles: 209688836
CPU 0 Branch Prediction Accuracy: 93.04% MPKI: 5.913 Average ROB Occupancy at Mispredict: 67.88
Branch type MPKI
BRANCH_DIRECT_JUMP: 9.5e-05
BRANCH_INDIRECT: 0.000282
BRANCH_CONDITIONAL: 5.91
BRANCH_DIRECT_CALL: 3.33e-06
BRANCH_INDIRECT_CALL: 4.83e-05
BRANCH_RETURN: 3.33e-05

LLC TOTAL        ACCESS:     408820 HIT:     320607 MISS:      88213
LLC LOAD         ACCESS:      59445 HIT:      47784 MISS:      11661
LLC RFO          ACCESS:      99913 HIT:      43715 MISS:      56198
LLC PREFETCH     ACCESS:     149155 HIT:     129617 MISS:      19538
LLC WRITE        ACCESS:     100302 HIT:      99491 MISS:        811
LLC TRANSLATION  ACCESS:          5 HIT:          0 MISS:          5
LLC PREFETCH REQUESTED:     149155 ISSUED:     149155 USEFUL:       8390 USELESS:        216
LLC AVERAGE MISS LATENCY: 695.2 cycles
cpu0_DTLB TOTAL        ACCESS:   82280561 HIT:   82269753 MISS:      10808
cpu0_DTLB LOAD         ACCESS:   82280561 HIT:   82269753 MISS:      10808
cpu0_DTLB RFO          ACCESS:          0 HIT:          0 MISS:          0
cpu0_DTLB PREFETCH     ACCESS:          0 HIT:          0 MISS:          0
cpu0_DTLB WRITE        ACCESS:          0 HIT:          0 MISS:          0
cpu0_DTLB TRANSLATION  ACCESS:          0 HIT:          0 MISS:          0
cpu0_DTLB PREFETCH REQUESTED:          0 ISSUED:          0 USEFUL:          0 USELESS:          0
cpu0_DTLB AVERAGE MISS LATENCY: 5.943 cycles
cpu0_ITLB TOTAL        ACCESS:       5584 HIT:       5367 MISS:        217
cpu0_ITLB LOAD         ACCESS:       5584 HIT:       5367 MISS:        217
cpu0_ITLB RFO          ACCESS:          0 HIT:          0 MISS:          0
cpu0_ITLB PREFETCH     ACCESS:          0 HIT:          0 MISS:          0
cpu0_ITLB WRITE        ACCESS:          0 HIT:          0 MISS:          0
cpu0_ITLB TRANSLATION  ACCESS:          0 HIT:          0 MISS:          0
cpu0_ITLB PREFETCH REQUESTED:          0 ISSUED:          0 USEFUL:          0 USELESS:          0
cpu0_ITLB AVERAGE MISS LATENCY: 6.502 cycles
cpu0_L1D TOTAL        ACCESS:  104504810 HIT:  102850269 MISS:    1654541
cpu0_L1D LOAD         ACCESS:   45343658 HIT:   44973984 MISS:     369674
cpu0_L1D RFO          ACCESS:          0 HIT:          0 MISS:          0
cpu0_L1D PREFETCH     ACCESS:          0 HIT:          0 MISS:          0
cpu0_L1D WRITE        ACCESS:   59160894 HIT:   57876032 MISS:    1284862
cpu0_L1D TRANSLATION  ACCESS:        258 HIT:        253 MISS:          5
cpu0_L1D PREFETCH REQUESTED:          0 ISSUED:          0 USEFUL:          0 USELESS:          0
cpu0_L1D AVERAGE MISS LATENCY: 32.75 cycles
cpu0_L1I TOTAL        ACCESS:       6346 HIT:       4041 MISS:       2305
cpu0_L1I LOAD         ACCESS:       6346 HIT:       4041 MISS:       2305
cpu0_L1I RFO          ACCESS:          0 HIT:          0 MISS:          0
cpu0_L1I PREFETCH     ACCESS:          0 HIT:          0 MISS:          0
cpu0_L1I WRITE        ACCESS:          0 HIT:          0 MISS:          0
cpu0_L1I TRANSLATION  ACCESS:          0 HIT:          0 MISS:          0
cpu0_L1I PREFETCH REQUESTED:          0 ISSUED:          0 USEFUL:          0 USELESS:          0
cpu0_L1I AVERAGE MISS LATENCY: 656.8 cycles
cpu0_L2C TOTAL        ACCESS:     265745 HIT:     106362 MISS:     159383
cpu0_L2C LOAD         ACCESS:      63734 HIT:       4289 MISS:      59445
cpu0_L2C RFO          ACCESS:     100743 HIT:        830 MISS:      99913
cpu0_L2C PREFETCH     ACCESS:          0 HIT:          0 MISS:          0
cpu0_L2C WRITE        ACCESS:     101263 HIT:     101243 MISS:         20
cpu0_L2C TRANSLATION  ACCESS:          5 HIT:          0 MISS:          5
cpu0_L2C PREFETCH REQUESTED:          0 ISSUED:          0 USEFUL:          0 USELESS:          0
cpu0_L2C AVERAGE MISS LATENCY: 381.2 cycles
cpu0_STLB TOTAL        ACCESS:       3913 HIT:       3656 MISS:        257
cpu0_STLB LOAD         ACCESS:       3913 HIT:       3656 MISS:        257
cpu0_STLB RFO          ACCESS:          0 HIT:          0 MISS:          0
cpu0_STLB PREFETCH     ACCESS:          0 HIT:          0 MISS:          0
cpu0_STLB WRITE        ACCESS:          0 HIT:          0 MISS:          0
cpu0_STLB TRANSLATION  ACCESS:          0 HIT:          0 MISS:          0
cpu0_STLB PREFETCH REQUESTED:          0 ISSUED:          0 USEFUL:          0 USELESS:          0
cpu0_STLB AVERAGE MISS LATENCY: 218.4 cycles

DRAM Statistics

Channel 0 RQ ROW_BUFFER_HIT:      29815
  ROW_BUFFER_MISS:      42639
 AVG DBUS CONGESTED CYCLE: 3.978
WQ ROW_BUFFER_HIT: Channel 0 
  ROW_BUFFER_MISS:       9452
  FULL:      42068
