WARNING: physical memory size is smaller than virtual memory size.

*** ChampSim Multicore Out-of-Order Simulator ***
Warmup Instructions: 50000000
Simulation Instructions: 600000000
Number of CPUs: 1
Page size: 4096

CPU 0 Tage branch predictor
Off-chip DRAM Size: 4 GiB Channels: 1 Width: 64-bit Data Race: 3200 MT/s
Heartbeat CPU 0 instructions: 10000004 cycles: 2777663 heartbeat IPC: 3.6 cumulative IPC: 3.6 (Simulation time: 00 hr 00 min 49 sec)
Heartbeat CPU 0 instructions: 20000001 cycles: 5634805 heartbeat IPC: 3.5 cumulative IPC: 3.549 (Simulation time: 00 hr 01 min 42 sec)
Heartbeat CPU 0 instructions: 30000000 cycles: 8491948 heartbeat IPC: 3.5 cumulative IPC: 3.533 (Simulation time: 00 hr 02 min 38 sec)
Heartbeat CPU 0 instructions: 40000003 cycles: 11120601 heartbeat IPC: 3.804 cumulative IPC: 3.597 (Simulation time: 00 hr 03 min 44 sec)
Heartbeat CPU 0 instructions: 50000003 cycles: 13620601 heartbeat IPC: 4 cumulative IPC: 3.671 (Simulation time: 00 hr 04 min 52 sec)
Warmup finished CPU 0 instructions: 50000003 cycles: 13620602 cumulative IPC: 3.671 (Simulation time: 00 hr 04 min 52 sec)
Warmup complete CPU 0 instructions: 50000003 cycles: 13620602 cumulative IPC: 3.671 (Simulation time: 00 hr 04 min 52 sec)
Heartbeat CPU 0 instructions: 60000002 cycles: 16120603 heartbeat IPC: 4 cumulative IPC: 4 (Simulation time: 00 hr 06 min 09 sec)
Heartbeat CPU 0 instructions: 70000001 cycles: 18620602 heartbeat IPC: 4 cumulative IPC: 4 (Simulation time: 00 hr 07 min 23 sec)
Heartbeat CPU 0 instructions: 80000000 cycles: 21120601 heartbeat IPC: 4 cumulative IPC: 4 (Simulation time: 00 hr 08 min 33 sec)
Heartbeat CPU 0 instructions: 90000003 cycles: 23621112 heartbeat IPC: 3.999 cumulative IPC: 4 (Simulation time: 00 hr 09 min 42 sec)
Heartbeat CPU 0 instructions: 100000003 cycles: 26121113 heartbeat IPC: 4 cumulative IPC: 4 (Simulation time: 00 hr 10 min 50 sec)
Heartbeat CPU 0 instructions: 110000004 cycles: 28621114 heartbeat IPC: 4 cumulative IPC: 4 (Simulation time: 00 hr 11 min 57 sec)
Heartbeat CPU 0 instructions: 120000003 cycles: 31121113 heartbeat IPC: 4 cumulative IPC: 4 (Simulation time: 00 hr 13 min 04 sec)
Heartbeat CPU 0 instructions: 130000002 cycles: 33621112 heartbeat IPC: 4 cumulative IPC: 4 (Simulation time: 00 hr 14 min 13 sec)
Heartbeat CPU 0 instructions: 140000000 cycles: 36122808 heartbeat IPC: 3.997 cumulative IPC: 4 (Simulation time: 00 hr 15 min 20 sec)
Heartbeat CPU 0 instructions: 150000000 cycles: 38622809 heartbeat IPC: 4 cumulative IPC: 4 (Simulation time: 00 hr 16 min 29 sec)
Heartbeat CPU 0 instructions: 160000001 cycles: 41122810 heartbeat IPC: 4 cumulative IPC: 4 (Simulation time: 00 hr 17 min 41 sec)
Heartbeat CPU 0 instructions: 170000004 cycles: 43622810 heartbeat IPC: 4 cumulative IPC: 4 (Simulation time: 00 hr 18 min 54 sec)
Heartbeat CPU 0 instructions: 180000000 cycles: 46124138 heartbeat IPC: 3.998 cumulative IPC: 4 (Simulation time: 00 hr 20 min 06 sec)
Heartbeat CPU 0 instructions: 190000004 cycles: 48624139 heartbeat IPC: 4 cumulative IPC: 4 (Simulation time: 00 hr 21 min 19 sec)
Heartbeat CPU 0 instructions: 200000002 cycles: 51124139 heartbeat IPC: 4 cumulative IPC: 4 (Simulation time: 00 hr 22 min 37 sec)
Heartbeat CPU 0 instructions: 210000003 cycles: 53624140 heartbeat IPC: 4 cumulative IPC: 4 (Simulation time: 00 hr 23 min 52 sec)
Heartbeat CPU 0 instructions: 220000001 cycles: 56124139 heartbeat IPC: 4 cumulative IPC: 4 (Simulation time: 00 hr 25 min 08 sec)
Heartbeat CPU 0 instructions: 230000002 cycles: 58625100 heartbeat IPC: 3.998 cumulative IPC: 4 (Simulation time: 00 hr 26 min 23 sec)
Heartbeat CPU 0 instructions: 240000003 cycles: 61125100 heartbeat IPC: 4 cumulative IPC: 4 (Simulation time: 00 hr 27 min 37 sec)
Heartbeat CPU 0 instructions: 250000004 cycles: 63625101 heartbeat IPC: 4 cumulative IPC: 4 (Simulation time: 00 hr 28 min 51 sec)
Heartbeat CPU 0 instructions: 260000000 cycles: 66125101 heartbeat IPC: 4 cumulative IPC: 4 (Simulation time: 00 hr 29 min 59 sec)
Heartbeat CPU 0 instructions: 270000003 cycles: 68625490 heartbeat IPC: 3.999 cumulative IPC: 4 (Simulation time: 00 hr 31 min 12 sec)
Heartbeat CPU 0 instructions: 280000001 cycles: 71125489 heartbeat IPC: 4 cumulative IPC: 4 (Simulation time: 00 hr 32 min 24 sec)
Heartbeat CPU 0 instructions: 290000000 cycles: 73625489 heartbeat IPC: 4 cumulative IPC: 4 (Simulation time: 00 hr 33 min 34 sec)
Heartbeat CPU 0 instructions: 300000001 cycles: 76125490 heartbeat IPC: 4 cumulative IPC: 4 (Simulation time: 00 hr 34 min 45 sec)
Heartbeat CPU 0 instructions: 310000000 cycles: 78625490 heartbeat IPC: 4 cumulative IPC: 4 (Simulation time: 00 hr 36 min 00 sec)
Heartbeat CPU 0 instructions: 320000000 cycles: 81126452 heartbeat IPC: 3.998 cumulative IPC: 4 (Simulation time: 00 hr 37 min 11 sec)
Heartbeat CPU 0 instructions: 330000000 cycles: 83626450 heartbeat IPC: 4 cumulative IPC: 4 (Simulation time: 00 hr 38 min 23 sec)
Heartbeat CPU 0 instructions: 340000002 cycles: 86126451 heartbeat IPC: 4 cumulative IPC: 4 (Simulation time: 00 hr 39 min 39 sec)
Heartbeat CPU 0 instructions: 350000003 cycles: 88626452 heartbeat IPC: 4 cumulative IPC: 4 (Simulation time: 00 hr 40 min 53 sec)
Heartbeat CPU 0 instructions: 360000001 cycles: 91126840 heartbeat IPC: 3.999 cumulative IPC: 4 (Simulation time: 00 hr 42 min 03 sec)
Heartbeat CPU 0 instructions: 370000002 cycles: 93626841 heartbeat IPC: 4 cumulative IPC: 4 (Simulation time: 00 hr 43 min 16 sec)
Heartbeat CPU 0 instructions: 380000002 cycles: 96126840 heartbeat IPC: 4 cumulative IPC: 4 (Simulation time: 00 hr 44 min 29 sec)
Heartbeat CPU 0 instructions: 390000004 cycles: 98626841 heartbeat IPC: 4 cumulative IPC: 4 (Simulation time: 00 hr 45 min 39 sec)
Heartbeat CPU 0 instructions: 400000000 cycles: 101126841 heartbeat IPC: 4 cumulative IPC: 4 (Simulation time: 00 hr 46 min 49 sec)
Heartbeat CPU 0 instructions: 410000003 cycles: 103627843 heartbeat IPC: 3.998 cumulative IPC: 4 (Simulation time: 00 hr 47 min 56 sec)
Heartbeat CPU 0 instructions: 420000003 cycles: 110985443 heartbeat IPC: 1.359 cumulative IPC: 3.8 (Simulation time: 00 hr 50 min 03 sec)
Heartbeat CPU 0 instructions: 430000002 cycles: 130026419 heartbeat IPC: 0.5252 cumulative IPC: 3.264 (Simulation time: 00 hr 54 min 22 sec)
Heartbeat CPU 0 instructions: 440000004 cycles: 149055554 heartbeat IPC: 0.5255 cumulative IPC: 2.88 (Simulation time: 00 hr 58 min 49 sec)
Heartbeat CPU 0 instructions: 450000000 cycles: 168097397 heartbeat IPC: 0.5252 cumulative IPC: 2.589 (Simulation time: 01 hr 04 min 24 sec)
Heartbeat CPU 0 instructions: 460000002 cycles: 187053433 heartbeat IPC: 0.5275 cumulative IPC: 2.364 (Simulation time: 01 hr 12 min 28 sec)
Heartbeat CPU 0 instructions: 470000003 cycles: 206075445 heartbeat IPC: 0.5257 cumulative IPC: 2.182 (Simulation time: 01 hr 20 min 38 sec)
Heartbeat CPU 0 instructions: 480000003 cycles: 225066375 heartbeat IPC: 0.5266 cumulative IPC: 2.034 (Simulation time: 01 hr 28 min 41 sec)
Heartbeat CPU 0 instructions: 490000004 cycles: 244057805 heartbeat IPC: 0.5266 cumulative IPC: 1.909 (Simulation time: 01 hr 35 min 53 sec)
Heartbeat CPU 0 instructions: 500000003 cycles: 263076387 heartbeat IPC: 0.5258 cumulative IPC: 1.804 (Simulation time: 01 hr 44 min 59 sec)
Heartbeat CPU 0 instructions: 510000002 cycles: 282068356 heartbeat IPC: 0.5265 cumulative IPC: 1.714 (Simulation time: 01 hr 53 min 41 sec)
Heartbeat CPU 0 instructions: 520000003 cycles: 301081189 heartbeat IPC: 0.526 cumulative IPC: 1.635 (Simulation time: 02 hr 02 min 25 sec)
Heartbeat CPU 0 instructions: 530000004 cycles: 320033749 heartbeat IPC: 0.5276 cumulative IPC: 1.567 (Simulation time: 02 hr 09 min 40 sec)
Heartbeat CPU 0 instructions: 540000004 cycles: 338991482 heartbeat IPC: 0.5275 cumulative IPC: 1.506 (Simulation time: 02 hr 19 min 06 sec)
Heartbeat CPU 0 instructions: 550000000 cycles: 358026296 heartbeat IPC: 0.5254 cumulative IPC: 1.452 (Simulation time: 02 hr 24 min 26 sec)
Heartbeat CPU 0 instructions: 560000002 cycles: 377026400 heartbeat IPC: 0.5263 cumulative IPC: 1.403 (Simulation time: 02 hr 29 min 02 sec)
Heartbeat CPU 0 instructions: 570000002 cycles: 396039402 heartbeat IPC: 0.526 cumulative IPC: 1.36 (Simulation time: 02 hr 33 min 30 sec)
Heartbeat CPU 0 instructions: 580000004 cycles: 415065182 heartbeat IPC: 0.5256 cumulative IPC: 1.32 (Simulation time: 02 hr 38 min 04 sec)
Heartbeat CPU 0 instructions: 590000000 cycles: 434087691 heartbeat IPC: 0.5257 cumulative IPC: 1.284 (Simulation time: 02 hr 42 min 48 sec)
*** Reached end of trace: (0, "traces/l1l2l3cache.champsimtrace")
Heartbeat CPU 0 instructions: 600000000 cycles: 453102130 heartbeat IPC: 0.5259 cumulative IPC: 1.251 (Simulation time: 02 hr 47 min 39 sec)
Heartbeat CPU 0 instructions: 610000004 cycles: 461936329 heartbeat IPC: 1.132 cumulative IPC: 1.249 (Simulation time: 02 hr 50 min 05 sec)
Heartbeat CPU 0 instructions: 620000002 cycles: 477411554 heartbeat IPC: 0.6462 cumulative IPC: 1.229 (Simulation time: 02 hr 53 min 53 sec)
Heartbeat CPU 0 instructions: 630000002 cycles: 492838510 heartbeat IPC: 0.6482 cumulative IPC: 1.21 (Simulation time: 02 hr 57 min 37 sec)
Heartbeat CPU 0 instructions: 640000000 cycles: 499999939 heartbeat IPC: 1.396 cumulative IPC: 1.213 (Simulation time: 03 hr 00 min 28 sec)
Heartbeat CPU 0 instructions: 650000001 cycles: 502499940 heartbeat IPC: 4 cumulative IPC: 1.227 (Simulation time: 03 hr 01 min 51 sec)
Simulation finished CPU 0 instructions: 600000003 cycles: 488879340 cumulative IPC: 1.227 (Simulation time: 03 hr 01 min 51 sec)
Simulation complete CPU 0 instructions: 600000003 cycles: 488879340 cumulative IPC: 1.227 (Simulation time: 03 hr 01 min 51 sec)

ChampSim completed all CPUs

=== Simulation ===
CPU 0 runs traces/l1l2l3cache.champsimtrace
Region of Interest Statistics

CPU 0 cumulative IPC: 1.227 instructions: 600000003 cycles: 488879340
CPU 0 Branch Prediction Accuracy: 99.99% MPKI: 0.01094 Average ROB Occupancy at Mispredict: 166.7
Branch type MPKI
BRANCH_DIRECT_JUMP: 8.5e-05
BRANCH_INDIRECT: 0.000237
BRANCH_CONDITIONAL: 0.0105
BRANCH_DIRECT_CALL: 5e-06
BRANCH_INDIRECT_CALL: 4.67e-05
BRANCH_RETURN: 3.67e-05

LLC TOTAL        ACCESS:    3095773 HIT:     249721 MISS:    2846052
LLC LOAD         ACCESS:    1954448 HIT:     155673 MISS:    1798775
LLC RFO          ACCESS:     561710 HIT:      43217 MISS:     518493
LLC PREFETCH     ACCESS:       6303 HIT:       6273 MISS:         30
LLC WRITE        ACCESS:     562067 HIT:      44040 MISS:     518027
LLC TRANSLATION  ACCESS:      11245 HIT:        518 MISS:      10727
LLC PREFETCH REQUESTED:       6303 ISSUED:       6303 USEFUL:          8 USELESS:         15
LLC AVERAGE MISS LATENCY: 573.7 cycles
cpu0_DTLB TOTAL        ACCESS:  124329816 HIT:  122314916 MISS:    2014900
cpu0_DTLB LOAD         ACCESS:  124329816 HIT:  122314916 MISS:    2014900
cpu0_DTLB RFO          ACCESS:          0 HIT:          0 MISS:          0
cpu0_DTLB PREFETCH     ACCESS:          0 HIT:          0 MISS:          0
cpu0_DTLB WRITE        ACCESS:          0 HIT:          0 MISS:          0
cpu0_DTLB TRANSLATION  ACCESS:          0 HIT:          0 MISS:          0
cpu0_DTLB PREFETCH REQUESTED:          0 ISSUED:          0 USEFUL:          0 USELESS:          0
cpu0_DTLB AVERAGE MISS LATENCY: 20.21 cycles
cpu0_ITLB TOTAL        ACCESS:       5039 HIT:       4800 MISS:        239
cpu0_ITLB LOAD         ACCESS:       5039 HIT:       4800 MISS:        239
cpu0_ITLB RFO          ACCESS:          0 HIT:          0 MISS:          0
cpu0_ITLB PREFETCH     ACCESS:          0 HIT:          0 MISS:          0
cpu0_ITLB WRITE        ACCESS:          0 HIT:          0 MISS:          0
cpu0_ITLB TRANSLATION  ACCESS:          0 HIT:          0 MISS:          0
cpu0_ITLB PREFETCH REQUESTED:          0 ISSUED:          0 USEFUL:          0 USELESS:          0
cpu0_ITLB AVERAGE MISS LATENCY: 80.51 cycles
cpu0_L1D TOTAL        ACCESS:  172103910 HIT:  160809117 MISS:   11294793
cpu0_L1D LOAD         ACCESS:   63783152 HIT:   61742893 MISS:    2040259
cpu0_L1D RFO          ACCESS:          0 HIT:          0 MISS:          0
cpu0_L1D PREFETCH     ACCESS:          0 HIT:          0 MISS:          0
cpu0_L1D WRITE        ACCESS:  107015267 HIT:   98506951 MISS:    8508316
cpu0_L1D TRANSLATION  ACCESS:    1305491 HIT:     559273 MISS:     746218
cpu0_L1D PREFETCH REQUESTED:          0 ISSUED:          0 USEFUL:          0 USELESS:          0
cpu0_L1D AVERAGE MISS LATENCY: 144.7 cycles
cpu0_L1I TOTAL        ACCESS:       5812 HIT:       3340 MISS:       2472
cpu0_L1I LOAD         ACCESS:       5812 HIT:       3340 MISS:       2472
cpu0_L1I RFO          ACCESS:          0 HIT:          0 MISS:          0
cpu0_L1I PREFETCH     ACCESS:          0 HIT:          0 MISS:          0
cpu0_L1I WRITE        ACCESS:          0 HIT:          0 MISS:          0
cpu0_L1I TRANSLATION  ACCESS:          0 HIT:          0 MISS:          0
cpu0_L1I PREFETCH REQUESTED:          0 ISSUED:          0 USEFUL:          0 USELESS:          0
cpu0_L1I AVERAGE MISS LATENCY: 134.8 cycles
cpu0_L2C TOTAL        ACCESS:    3905746 HIT:    1378327 MISS:    2527419
cpu0_L2C LOAD         ACCESS:    2009349 HIT:      54901 MISS:    1954448
cpu0_L2C RFO          ACCESS:     574423 HIT:      12713 MISS:     561710
cpu0_L2C PREFETCH     ACCESS:          0 HIT:          0 MISS:          0
cpu0_L2C WRITE        ACCESS:     575778 HIT:     575762 MISS:         16
cpu0_L2C TRANSLATION  ACCESS:     746196 HIT:     734951 MISS:      11245
cpu0_L2C PREFETCH REQUESTED:          0 ISSUED:          0 USEFUL:          0 USELESS:          0
cpu0_L2C AVERAGE MISS LATENCY: 666.9 cycles
cpu0_STLB TOTAL        ACCESS:    1982602 HIT:     677119 MISS:    1305483
cpu0_STLB LOAD         ACCESS:    1982602 HIT:     677119 MISS:    1305483
cpu0_STLB RFO          ACCESS:          0 HIT:          0 MISS:          0
cpu0_STLB PREFETCH     ACCESS:          0 HIT:          0 MISS:          0
cpu0_STLB WRITE        ACCESS:          0 HIT:          0 MISS:          0
cpu0_STLB TRANSLATION  ACCESS:          0 HIT:          0 MISS:          0
cpu0_STLB PREFETCH REQUESTED:          0 ISSUED:          0 USEFUL:          0 USELESS:          0
cpu0_STLB AVERAGE MISS LATENCY: 18.12 cycles

DRAM Statistics

Channel 0 RQ ROW_BUFFER_HIT:      87189
  ROW_BUFFER_MISS:    2240610
 AVG DBUS CONGESTED CYCLE: 3.94
WQ ROW_BUFFER_HIT: Channel 0 
  ROW_BUFFER_MISS:     177360
  FULL:     341151
