WARNING: physical memory size is smaller than virtual memory size.

*** ChampSim Multicore Out-of-Order Simulator ***
Warmup Instructions: 50000000
Simulation Instructions: 600000000
Number of CPUs: 1
Page size: 4096

Off-chip DRAM Size: 4 GiB Channels: 1 Width: 64-bit Data Race: 3200 MT/s
Heartbeat CPU 0 instructions: 10000000 cycles: 2565785 heartbeat IPC: 3.897 cumulative IPC: 3.897 (Simulation time: 00 hr 00 min 34 sec)
Heartbeat CPU 0 instructions: 20000000 cycles: 5131274 heartbeat IPC: 3.898 cumulative IPC: 3.898 (Simulation time: 00 hr 01 min 07 sec)
Heartbeat CPU 0 instructions: 30000000 cycles: 7631274 heartbeat IPC: 4 cumulative IPC: 3.931 (Simulation time: 00 hr 01 min 39 sec)
Heartbeat CPU 0 instructions: 40000000 cycles: 10131274 heartbeat IPC: 4 cumulative IPC: 3.948 (Simulation time: 00 hr 02 min 11 sec)
Heartbeat CPU 0 instructions: 50000000 cycles: 12631274 heartbeat IPC: 4 cumulative IPC: 3.958 (Simulation time: 00 hr 02 min 42 sec)
Warmup finished CPU 0 instructions: 50000000 cycles: 12631275 cumulative IPC: 3.958 (Simulation time: 00 hr 02 min 42 sec)
Warmup complete CPU 0 instructions: 50000000 cycles: 12631275 cumulative IPC: 3.958 (Simulation time: 00 hr 02 min 42 sec)
Heartbeat CPU 0 instructions: 60000000 cycles: 16408407 heartbeat IPC: 2.648 cumulative IPC: 2.648 (Simulation time: 00 hr 03 min 26 sec)
Heartbeat CPU 0 instructions: 70000000 cycles: 20186549 heartbeat IPC: 2.647 cumulative IPC: 2.647 (Simulation time: 00 hr 04 min 08 sec)
Heartbeat CPU 0 instructions: 80000004 cycles: 23962683 heartbeat IPC: 2.648 cumulative IPC: 2.648 (Simulation time: 00 hr 04 min 48 sec)
Heartbeat CPU 0 instructions: 90000000 cycles: 27741364 heartbeat IPC: 2.646 cumulative IPC: 2.647 (Simulation time: 00 hr 05 min 37 sec)
Heartbeat CPU 0 instructions: 100000003 cycles: 31520115 heartbeat IPC: 2.646 cumulative IPC: 2.647 (Simulation time: 00 hr 06 min 21 sec)
Heartbeat CPU 0 instructions: 110000001 cycles: 35297461 heartbeat IPC: 2.647 cumulative IPC: 2.647 (Simulation time: 00 hr 07 min 05 sec)
Heartbeat CPU 0 instructions: 120000001 cycles: 39072822 heartbeat IPC: 2.649 cumulative IPC: 2.647 (Simulation time: 00 hr 07 min 47 sec)
Heartbeat CPU 0 instructions: 130000001 cycles: 42846915 heartbeat IPC: 2.65 cumulative IPC: 2.648 (Simulation time: 00 hr 08 min 27 sec)
Heartbeat CPU 0 instructions: 140000001 cycles: 46623966 heartbeat IPC: 2.648 cumulative IPC: 2.648 (Simulation time: 00 hr 09 min 07 sec)
Heartbeat CPU 0 instructions: 150000000 cycles: 50400439 heartbeat IPC: 2.648 cumulative IPC: 2.648 (Simulation time: 00 hr 09 min 49 sec)
Heartbeat CPU 0 instructions: 160000002 cycles: 54178785 heartbeat IPC: 2.647 cumulative IPC: 2.648 (Simulation time: 00 hr 10 min 33 sec)
Heartbeat CPU 0 instructions: 170000000 cycles: 57955645 heartbeat IPC: 2.648 cumulative IPC: 2.648 (Simulation time: 00 hr 11 min 15 sec)
Heartbeat CPU 0 instructions: 180000004 cycles: 61730591 heartbeat IPC: 2.649 cumulative IPC: 2.648 (Simulation time: 00 hr 12 min 05 sec)
Heartbeat CPU 0 instructions: 190000001 cycles: 65506668 heartbeat IPC: 2.648 cumulative IPC: 2.648 (Simulation time: 00 hr 12 min 54 sec)
Heartbeat CPU 0 instructions: 200000001 cycles: 69281672 heartbeat IPC: 2.649 cumulative IPC: 2.648 (Simulation time: 00 hr 14 min 18 sec)
Heartbeat CPU 0 instructions: 210000004 cycles: 73057808 heartbeat IPC: 2.648 cumulative IPC: 2.648 (Simulation time: 00 hr 15 min 51 sec)
Heartbeat CPU 0 instructions: 220000003 cycles: 76833732 heartbeat IPC: 2.648 cumulative IPC: 2.648 (Simulation time: 00 hr 17 min 24 sec)
Heartbeat CPU 0 instructions: 230000001 cycles: 80378787 heartbeat IPC: 2.821 cumulative IPC: 2.657 (Simulation time: 00 hr 19 min 10 sec)
Heartbeat CPU 0 instructions: 240000002 cycles: 83181789 heartbeat IPC: 3.568 cumulative IPC: 2.693 (Simulation time: 00 hr 20 min 42 sec)
Heartbeat CPU 0 instructions: 250000003 cycles: 86962590 heartbeat IPC: 2.645 cumulative IPC: 2.691 (Simulation time: 00 hr 22 min 22 sec)
Heartbeat CPU 0 instructions: 260000002 cycles: 90738789 heartbeat IPC: 2.648 cumulative IPC: 2.689 (Simulation time: 00 hr 23 min 52 sec)
Heartbeat CPU 0 instructions: 270000004 cycles: 94514952 heartbeat IPC: 2.648 cumulative IPC: 2.687 (Simulation time: 00 hr 25 min 30 sec)
Heartbeat CPU 0 instructions: 280000000 cycles: 98292013 heartbeat IPC: 2.648 cumulative IPC: 2.685 (Simulation time: 00 hr 27 min 10 sec)
Heartbeat CPU 0 instructions: 290000002 cycles: 102068046 heartbeat IPC: 2.648 cumulative IPC: 2.683 (Simulation time: 00 hr 28 min 45 sec)
Heartbeat CPU 0 instructions: 300000004 cycles: 105842660 heartbeat IPC: 2.649 cumulative IPC: 2.682 (Simulation time: 00 hr 30 min 21 sec)
Heartbeat CPU 0 instructions: 310000002 cycles: 109619035 heartbeat IPC: 2.648 cumulative IPC: 2.681 (Simulation time: 00 hr 31 min 57 sec)
Heartbeat CPU 0 instructions: 320000004 cycles: 113396261 heartbeat IPC: 2.647 cumulative IPC: 2.68 (Simulation time: 00 hr 33 min 28 sec)
Heartbeat CPU 0 instructions: 330000003 cycles: 117173383 heartbeat IPC: 2.648 cumulative IPC: 2.678 (Simulation time: 00 hr 34 min 56 sec)
Heartbeat CPU 0 instructions: 340000000 cycles: 120950092 heartbeat IPC: 2.648 cumulative IPC: 2.677 (Simulation time: 00 hr 36 min 28 sec)
Heartbeat CPU 0 instructions: 350000002 cycles: 124727182 heartbeat IPC: 2.648 cumulative IPC: 2.676 (Simulation time: 00 hr 37 min 14 sec)
Heartbeat CPU 0 instructions: 360000003 cycles: 128503795 heartbeat IPC: 2.648 cumulative IPC: 2.675 (Simulation time: 00 hr 38 min 03 sec)
Heartbeat CPU 0 instructions: 370000004 cycles: 132279074 heartbeat IPC: 2.649 cumulative IPC: 2.675 (Simulation time: 00 hr 38 min 52 sec)
Heartbeat CPU 0 instructions: 380000002 cycles: 136054114 heartbeat IPC: 2.649 cumulative IPC: 2.674 (Simulation time: 00 hr 39 min 40 sec)
Heartbeat CPU 0 instructions: 390000000 cycles: 139827261 heartbeat IPC: 2.65 cumulative IPC: 2.673 (Simulation time: 00 hr 40 min 29 sec)
Heartbeat CPU 0 instructions: 400000001 cycles: 143603360 heartbeat IPC: 2.648 cumulative IPC: 2.672 (Simulation time: 00 hr 41 min 19 sec)
Heartbeat CPU 0 instructions: 410000003 cycles: 147379633 heartbeat IPC: 2.648 cumulative IPC: 2.672 (Simulation time: 00 hr 42 min 12 sec)
Heartbeat CPU 0 instructions: 420000000 cycles: 151157521 heartbeat IPC: 2.647 cumulative IPC: 2.671 (Simulation time: 00 hr 43 min 05 sec)
Heartbeat CPU 0 instructions: 430000001 cycles: 154935264 heartbeat IPC: 2.647 cumulative IPC: 2.67 (Simulation time: 00 hr 43 min 56 sec)
Heartbeat CPU 0 instructions: 440000002 cycles: 158710415 heartbeat IPC: 2.649 cumulative IPC: 2.67 (Simulation time: 00 hr 44 min 46 sec)
Heartbeat CPU 0 instructions: 450000001 cycles: 161559231 heartbeat IPC: 3.51 cumulative IPC: 2.686 (Simulation time: 00 hr 45 min 32 sec)
Heartbeat CPU 0 instructions: 460000002 cycles: 164354862 heartbeat IPC: 3.577 cumulative IPC: 2.702 (Simulation time: 00 hr 46 min 18 sec)
Heartbeat CPU 0 instructions: 470000004 cycles: 168129354 heartbeat IPC: 2.649 cumulative IPC: 2.701 (Simulation time: 00 hr 47 min 05 sec)
Heartbeat CPU 0 instructions: 480000000 cycles: 171906502 heartbeat IPC: 2.647 cumulative IPC: 2.7 (Simulation time: 00 hr 47 min 55 sec)
Heartbeat CPU 0 instructions: 490000000 cycles: 175682708 heartbeat IPC: 2.648 cumulative IPC: 2.699 (Simulation time: 00 hr 48 min 46 sec)
Heartbeat CPU 0 instructions: 500000002 cycles: 179458292 heartbeat IPC: 2.649 cumulative IPC: 2.697 (Simulation time: 00 hr 49 min 35 sec)
Heartbeat CPU 0 instructions: 510000001 cycles: 183234754 heartbeat IPC: 2.648 cumulative IPC: 2.696 (Simulation time: 00 hr 50 min 26 sec)
Heartbeat CPU 0 instructions: 520000002 cycles: 187011269 heartbeat IPC: 2.648 cumulative IPC: 2.695 (Simulation time: 00 hr 51 min 16 sec)
Heartbeat CPU 0 instructions: 530000002 cycles: 190786655 heartbeat IPC: 2.649 cumulative IPC: 2.694 (Simulation time: 00 hr 52 min 05 sec)
Heartbeat CPU 0 instructions: 540000000 cycles: 194565310 heartbeat IPC: 2.646 cumulative IPC: 2.693 (Simulation time: 00 hr 52 min 58 sec)
Heartbeat CPU 0 instructions: 550000000 cycles: 198340689 heartbeat IPC: 2.649 cumulative IPC: 2.692 (Simulation time: 00 hr 53 min 50 sec)
Heartbeat CPU 0 instructions: 560000001 cycles: 202116800 heartbeat IPC: 2.648 cumulative IPC: 2.691 (Simulation time: 00 hr 54 min 41 sec)
Heartbeat CPU 0 instructions: 570000001 cycles: 205892655 heartbeat IPC: 2.648 cumulative IPC: 2.691 (Simulation time: 00 hr 55 min 29 sec)
Heartbeat CPU 0 instructions: 580000002 cycles: 209672889 heartbeat IPC: 2.645 cumulative IPC: 2.69 (Simulation time: 00 hr 56 min 19 sec)
Heartbeat CPU 0 instructions: 590000003 cycles: 213448904 heartbeat IPC: 2.648 cumulative IPC: 2.689 (Simulation time: 00 hr 57 min 08 sec)
*** Reached end of trace: (0, "traces/l1l2cache.champsimtrace")
Heartbeat CPU 0 instructions: 600000001 cycles: 217225210 heartbeat IPC: 2.648 cumulative IPC: 2.688 (Simulation time: 00 hr 57 min 57 sec)
Heartbeat CPU 0 instructions: 610000001 cycles: 222626161 heartbeat IPC: 1.852 cumulative IPC: 2.667 (Simulation time: 00 hr 59 min 04 sec)
Heartbeat CPU 0 instructions: 620000004 cycles: 225463737 heartbeat IPC: 3.524 cumulative IPC: 2.678 (Simulation time: 00 hr 59 min 56 sec)
Heartbeat CPU 0 instructions: 630000004 cycles: 229237371 heartbeat IPC: 2.65 cumulative IPC: 2.678 (Simulation time: 01 hr 00 min 48 sec)
Heartbeat CPU 0 instructions: 640000004 cycles: 233012835 heartbeat IPC: 2.649 cumulative IPC: 2.677 (Simulation time: 01 hr 01 min 38 sec)
Heartbeat CPU 0 instructions: 650000004 cycles: 236791270 heartbeat IPC: 2.647 cumulative IPC: 2.677 (Simulation time: 01 hr 02 min 27 sec)
Simulation finished CPU 0 instructions: 600000004 cycles: 224159996 cumulative IPC: 2.677 (Simulation time: 01 hr 02 min 27 sec)
Simulation complete CPU 0 instructions: 600000004 cycles: 224159996 cumulative IPC: 2.677 (Simulation time: 01 hr 02 min 27 sec)

ChampSim completed all CPUs

=== Simulation ===
CPU 0 runs traces/l1l2cache.champsimtrace
Region of Interest Statistics

CPU 0 cumulative IPC: 2.677 instructions: 600000004 cycles: 224159996
CPU 0 Branch Prediction Accuracy: 89.66% MPKI: 8.781 Average ROB Occupancy at Mispredict: 55.04
Branch type MPKI
BRANCH_DIRECT_JUMP: 9.5e-05
BRANCH_INDIRECT: 0.000282
BRANCH_CONDITIONAL: 8.78
BRANCH_DIRECT_CALL: 3.33e-06
BRANCH_INDIRECT_CALL: 4.83e-05
BRANCH_RETURN: 3.33e-05

LLC TOTAL        ACCESS:     319114 HIT:     255086 MISS:      64028
LLC LOAD         ACCESS:      59447 HIT:      54543 MISS:       4904
LLC RFO          ACCESS:      99911 HIT:      67465 MISS:      32446
LLC PREFETCH     ACCESS:      59447 HIT:      54210 MISS:       5237
LLC WRITE        ACCESS:     100304 HIT:      78868 MISS:      21436
LLC TRANSLATION  ACCESS:          5 HIT:          0 MISS:          5
LLC PREFETCH REQUESTED:      59447 ISSUED:      59447 USEFUL:       2821 USELESS:       2604
LLC AVERAGE MISS LATENCY: 401.3 cycles
cpu0_DTLB TOTAL        ACCESS:   83128896 HIT:   83118133 MISS:      10763
cpu0_DTLB LOAD         ACCESS:   83128896 HIT:   83118133 MISS:      10763
cpu0_DTLB RFO          ACCESS:          0 HIT:          0 MISS:          0
cpu0_DTLB PREFETCH     ACCESS:          0 HIT:          0 MISS:          0
cpu0_DTLB WRITE        ACCESS:          0 HIT:          0 MISS:          0
cpu0_DTLB TRANSLATION  ACCESS:          0 HIT:          0 MISS:          0
cpu0_DTLB PREFETCH REQUESTED:          0 ISSUED:          0 USEFUL:          0 USELESS:          0
cpu0_DTLB AVERAGE MISS LATENCY: 5.954 cycles
cpu0_ITLB TOTAL        ACCESS:       5562 HIT:       5332 MISS:        230
cpu0_ITLB LOAD         ACCESS:       5562 HIT:       5332 MISS:        230
cpu0_ITLB RFO          ACCESS:          0 HIT:          0 MISS:          0
cpu0_ITLB PREFETCH     ACCESS:          0 HIT:          0 MISS:          0
cpu0_ITLB WRITE        ACCESS:          0 HIT:          0 MISS:          0
cpu0_ITLB TRANSLATION  ACCESS:          0 HIT:          0 MISS:          0
cpu0_ITLB PREFETCH REQUESTED:          0 ISSUED:          0 USEFUL:          0 USELESS:          0
cpu0_ITLB AVERAGE MISS LATENCY: 6.065 cycles
cpu0_L1D TOTAL        ACCESS:  105984659 HIT:  104556982 MISS:    1427677
cpu0_L1D LOAD         ACCESS:   46652028 HIT:   46307528 MISS:     344500
cpu0_L1D RFO          ACCESS:          0 HIT:          0 MISS:          0
cpu0_L1D PREFETCH     ACCESS:          0 HIT:          0 MISS:          0
cpu0_L1D WRITE        ACCESS:   59332373 HIT:   58249201 MISS:    1083172
cpu0_L1D TRANSLATION  ACCESS:        258 HIT:        253 MISS:          5
cpu0_L1D PREFETCH REQUESTED:          0 ISSUED:          0 USEFUL:          0 USELESS:          0
cpu0_L1D AVERAGE MISS LATENCY: 14.97 cycles
cpu0_L1I TOTAL        ACCESS:       6312 HIT:       3922 MISS:       2390
cpu0_L1I LOAD         ACCESS:       6312 HIT:       3922 MISS:       2390
cpu0_L1I RFO          ACCESS:          0 HIT:          0 MISS:          0
cpu0_L1I PREFETCH     ACCESS:          0 HIT:          0 MISS:          0
cpu0_L1I WRITE        ACCESS:          0 HIT:          0 MISS:          0
cpu0_L1I TRANSLATION  ACCESS:          0 HIT:          0 MISS:          0
cpu0_L1I PREFETCH REQUESTED:          0 ISSUED:          0 USEFUL:          0 USELESS:          0
cpu0_L1I AVERAGE MISS LATENCY: 496.4 cycles
cpu0_L2C TOTAL        ACCESS:     265739 HIT:     106353 MISS:     159386
cpu0_L2C LOAD         ACCESS:      63738 HIT:       4291 MISS:      59447
cpu0_L2C RFO          ACCESS:     100732 HIT:        821 MISS:      99911
cpu0_L2C PREFETCH     ACCESS:          0 HIT:          0 MISS:          0
cpu0_L2C WRITE        ACCESS:     101264 HIT:     101241 MISS:         23
cpu0_L2C TRANSLATION  ACCESS:          5 HIT:          0 MISS:          5
cpu0_L2C PREFETCH REQUESTED:          0 ISSUED:          0 USEFUL:          0 USELESS:          0
cpu0_L2C AVERAGE MISS LATENCY: 161.9 cycles
cpu0_STLB TOTAL        ACCESS:       3914 HIT:       3657 MISS:        257
cpu0_STLB LOAD         ACCESS:       3914 HIT:       3657 MISS:        257
cpu0_STLB RFO          ACCESS:          0 HIT:          0 MISS:          0
cpu0_STLB PREFETCH     ACCESS:          0 HIT:          0 MISS:          0
cpu0_STLB WRITE        ACCESS:          0 HIT:          0 MISS:          0
cpu0_STLB TRANSLATION  ACCESS:          0 HIT:          0 MISS:          0
cpu0_STLB PREFETCH REQUESTED:          0 ISSUED:          0 USEFUL:          0 USELESS:          0
cpu0_STLB AVERAGE MISS LATENCY: 218.5 cycles

DRAM Statistics

Channel 0 RQ ROW_BUFFER_HIT:      25384
  ROW_BUFFER_MISS:      15147
 AVG DBUS CONGESTED CYCLE: 3.965
WQ ROW_BUFFER_HIT: Channel 0 
  ROW_BUFFER_MISS:       3863
  FULL:      16945
