WARNING: physical memory size is smaller than virtual memory size.

*** ChampSim Multicore Out-of-Order Simulator ***
Warmup Instructions: 50000000
Simulation Instructions: 600000000
Number of CPUs: 1
Page size: 4096

Off-chip DRAM Size: 4 GiB Channels: 1 Width: 64-bit Data Race: 3200 MT/s
Heartbeat CPU 0 instructions: 10000004 cycles: 2777663 heartbeat IPC: 3.6 cumulative IPC: 3.6 (Simulation time: 00 hr 00 min 35 sec)
Heartbeat CPU 0 instructions: 20000001 cycles: 5634805 heartbeat IPC: 3.5 cumulative IPC: 3.549 (Simulation time: 00 hr 01 min 17 sec)
Heartbeat CPU 0 instructions: 30000000 cycles: 8491948 heartbeat IPC: 3.5 cumulative IPC: 3.533 (Simulation time: 00 hr 02 min 00 sec)
Heartbeat CPU 0 instructions: 40000003 cycles: 11120601 heartbeat IPC: 3.804 cumulative IPC: 3.597 (Simulation time: 00 hr 02 min 44 sec)
Heartbeat CPU 0 instructions: 50000003 cycles: 13620601 heartbeat IPC: 4 cumulative IPC: 3.671 (Simulation time: 00 hr 03 min 29 sec)
Warmup finished CPU 0 instructions: 50000003 cycles: 13620602 cumulative IPC: 3.671 (Simulation time: 00 hr 03 min 29 sec)
Warmup complete CPU 0 instructions: 50000003 cycles: 13620602 cumulative IPC: 3.671 (Simulation time: 00 hr 03 min 29 sec)
Heartbeat CPU 0 instructions: 60000002 cycles: 16347845 heartbeat IPC: 3.667 cumulative IPC: 3.667 (Simulation time: 00 hr 04 min 26 sec)
Heartbeat CPU 0 instructions: 70000001 cycles: 19075145 heartbeat IPC: 3.667 cumulative IPC: 3.667 (Simulation time: 00 hr 05 min 29 sec)
Heartbeat CPU 0 instructions: 80000001 cycles: 21802387 heartbeat IPC: 3.667 cumulative IPC: 3.667 (Simulation time: 00 hr 06 min 33 sec)
Heartbeat CPU 0 instructions: 90000000 cycles: 24530531 heartbeat IPC: 3.665 cumulative IPC: 3.666 (Simulation time: 00 hr 07 min 39 sec)
Heartbeat CPU 0 instructions: 100000003 cycles: 27257774 heartbeat IPC: 3.667 cumulative IPC: 3.666 (Simulation time: 00 hr 08 min 44 sec)
Heartbeat CPU 0 instructions: 110000004 cycles: 29985077 heartbeat IPC: 3.667 cumulative IPC: 3.666 (Simulation time: 00 hr 09 min 45 sec)
Heartbeat CPU 0 instructions: 120000003 cycles: 32712347 heartbeat IPC: 3.667 cumulative IPC: 3.667 (Simulation time: 00 hr 10 min 46 sec)
Heartbeat CPU 0 instructions: 130000003 cycles: 35439620 heartbeat IPC: 3.667 cumulative IPC: 3.667 (Simulation time: 00 hr 11 min 42 sec)
Heartbeat CPU 0 instructions: 140000002 cycles: 38168259 heartbeat IPC: 3.665 cumulative IPC: 3.666 (Simulation time: 00 hr 12 min 39 sec)
Heartbeat CPU 0 instructions: 150000000 cycles: 40895502 heartbeat IPC: 3.667 cumulative IPC: 3.666 (Simulation time: 00 hr 13 min 35 sec)
Heartbeat CPU 0 instructions: 160000001 cycles: 43622806 heartbeat IPC: 3.667 cumulative IPC: 3.666 (Simulation time: 00 hr 14 min 30 sec)
Heartbeat CPU 0 instructions: 170000004 cycles: 46350047 heartbeat IPC: 3.667 cumulative IPC: 3.666 (Simulation time: 00 hr 15 min 26 sec)
Heartbeat CPU 0 instructions: 180000000 cycles: 49077729 heartbeat IPC: 3.666 cumulative IPC: 3.666 (Simulation time: 00 hr 16 min 21 sec)
Heartbeat CPU 0 instructions: 190000004 cycles: 51805015 heartbeat IPC: 3.667 cumulative IPC: 3.666 (Simulation time: 00 hr 17 min 18 sec)
Heartbeat CPU 0 instructions: 200000002 cycles: 54532273 heartbeat IPC: 3.667 cumulative IPC: 3.666 (Simulation time: 00 hr 18 min 16 sec)
Heartbeat CPU 0 instructions: 210000003 cycles: 57259576 heartbeat IPC: 3.667 cumulative IPC: 3.666 (Simulation time: 00 hr 19 min 16 sec)
Heartbeat CPU 0 instructions: 220000001 cycles: 59986818 heartbeat IPC: 3.667 cumulative IPC: 3.666 (Simulation time: 00 hr 20 min 20 sec)
Heartbeat CPU 0 instructions: 230000002 cycles: 62715203 heartbeat IPC: 3.665 cumulative IPC: 3.666 (Simulation time: 00 hr 21 min 25 sec)
Heartbeat CPU 0 instructions: 240000003 cycles: 65442445 heartbeat IPC: 3.667 cumulative IPC: 3.666 (Simulation time: 00 hr 22 min 25 sec)
Heartbeat CPU 0 instructions: 250000004 cycles: 68169748 heartbeat IPC: 3.667 cumulative IPC: 3.666 (Simulation time: 00 hr 23 min 30 sec)
Heartbeat CPU 0 instructions: 260000000 cycles: 70897031 heartbeat IPC: 3.667 cumulative IPC: 3.666 (Simulation time: 00 hr 24 min 31 sec)
Heartbeat CPU 0 instructions: 270000003 cycles: 73624910 heartbeat IPC: 3.666 cumulative IPC: 3.666 (Simulation time: 00 hr 25 min 35 sec)
Heartbeat CPU 0 instructions: 280000001 cycles: 76352211 heartbeat IPC: 3.667 cumulative IPC: 3.666 (Simulation time: 00 hr 26 min 36 sec)
Heartbeat CPU 0 instructions: 290000000 cycles: 79079452 heartbeat IPC: 3.667 cumulative IPC: 3.666 (Simulation time: 00 hr 27 min 36 sec)
Heartbeat CPU 0 instructions: 300000001 cycles: 81806755 heartbeat IPC: 3.667 cumulative IPC: 3.666 (Simulation time: 00 hr 28 min 36 sec)
Heartbeat CPU 0 instructions: 310000000 cycles: 84533997 heartbeat IPC: 3.667 cumulative IPC: 3.666 (Simulation time: 00 hr 29 min 35 sec)
Heartbeat CPU 0 instructions: 320000000 cycles: 87262137 heartbeat IPC: 3.666 cumulative IPC: 3.666 (Simulation time: 00 hr 30 min 36 sec)
Heartbeat CPU 0 instructions: 330000001 cycles: 89989433 heartbeat IPC: 3.667 cumulative IPC: 3.666 (Simulation time: 00 hr 31 min 34 sec)
Heartbeat CPU 0 instructions: 340000002 cycles: 92716680 heartbeat IPC: 3.667 cumulative IPC: 3.666 (Simulation time: 00 hr 32 min 33 sec)
Heartbeat CPU 0 instructions: 350000003 cycles: 95443983 heartbeat IPC: 3.667 cumulative IPC: 3.666 (Simulation time: 00 hr 33 min 32 sec)
Heartbeat CPU 0 instructions: 360000001 cycles: 98171677 heartbeat IPC: 3.666 cumulative IPC: 3.666 (Simulation time: 00 hr 34 min 29 sec)
Heartbeat CPU 0 instructions: 370000002 cycles: 100898981 heartbeat IPC: 3.667 cumulative IPC: 3.666 (Simulation time: 00 hr 35 min 27 sec)
Heartbeat CPU 0 instructions: 380000001 cycles: 103626235 heartbeat IPC: 3.667 cumulative IPC: 3.666 (Simulation time: 00 hr 36 min 30 sec)
Heartbeat CPU 0 instructions: 390000004 cycles: 106353524 heartbeat IPC: 3.667 cumulative IPC: 3.666 (Simulation time: 00 hr 37 min 30 sec)
Heartbeat CPU 0 instructions: 400000000 cycles: 109080824 heartbeat IPC: 3.667 cumulative IPC: 3.666 (Simulation time: 00 hr 38 min 29 sec)
Heartbeat CPU 0 instructions: 410000003 cycles: 111809268 heartbeat IPC: 3.665 cumulative IPC: 3.666 (Simulation time: 00 hr 39 min 28 sec)
Heartbeat CPU 0 instructions: 420000003 cycles: 120594096 heartbeat IPC: 1.138 cumulative IPC: 3.459 (Simulation time: 00 hr 41 min 40 sec)
Heartbeat CPU 0 instructions: 430000002 cycles: 148483129 heartbeat IPC: 0.3586 cumulative IPC: 2.818 (Simulation time: 00 hr 47 min 33 sec)
Heartbeat CPU 0 instructions: 440000004 cycles: 176338455 heartbeat IPC: 0.359 cumulative IPC: 2.397 (Simulation time: 00 hr 53 min 18 sec)
Heartbeat CPU 0 instructions: 450000000 cycles: 204239303 heartbeat IPC: 0.3584 cumulative IPC: 2.098 (Simulation time: 00 hr 59 min 05 sec)
Heartbeat CPU 0 instructions: 460000001 cycles: 231962319 heartbeat IPC: 0.3607 cumulative IPC: 1.878 (Simulation time: 01 hr 06 min 48 sec)
Heartbeat CPU 0 instructions: 470000003 cycles: 259745814 heartbeat IPC: 0.3599 cumulative IPC: 1.706 (Simulation time: 01 hr 16 min 48 sec)
Heartbeat CPU 0 instructions: 480000004 cycles: 287324127 heartbeat IPC: 0.3626 cumulative IPC: 1.571 (Simulation time: 01 hr 28 min 51 sec)
Heartbeat CPU 0 instructions: 490000000 cycles: 315048486 heartbeat IPC: 0.3607 cumulative IPC: 1.46 (Simulation time: 01 hr 36 min 42 sec)
Heartbeat CPU 0 instructions: 500000001 cycles: 342769966 heartbeat IPC: 0.3607 cumulative IPC: 1.367 (Simulation time: 01 hr 48 min 33 sec)
Heartbeat CPU 0 instructions: 510000002 cycles: 370389495 heartbeat IPC: 0.3621 cumulative IPC: 1.289 (Simulation time: 01 hr 59 min 55 sec)
Heartbeat CPU 0 instructions: 520000003 cycles: 398092840 heartbeat IPC: 0.361 cumulative IPC: 1.222 (Simulation time: 02 hr 09 min 38 sec)
Heartbeat CPU 0 instructions: 530000004 cycles: 425566171 heartbeat IPC: 0.364 cumulative IPC: 1.165 (Simulation time: 02 hr 20 min 54 sec)
Heartbeat CPU 0 instructions: 540000004 cycles: 453127350 heartbeat IPC: 0.3628 cumulative IPC: 1.115 (Simulation time: 02 hr 27 min 25 sec)
Heartbeat CPU 0 instructions: 550000000 cycles: 480705271 heartbeat IPC: 0.3626 cumulative IPC: 1.07 (Simulation time: 02 hr 33 min 16 sec)
Heartbeat CPU 0 instructions: 560000002 cycles: 508238576 heartbeat IPC: 0.3632 cumulative IPC: 1.031 (Simulation time: 02 hr 39 min 10 sec)
Heartbeat CPU 0 instructions: 570000002 cycles: 535870541 heartbeat IPC: 0.3619 cumulative IPC: 0.9957 (Simulation time: 02 hr 45 min 28 sec)
Heartbeat CPU 0 instructions: 580000004 cycles: 563458405 heartbeat IPC: 0.3625 cumulative IPC: 0.9639 (Simulation time: 02 hr 51 min 30 sec)
Heartbeat CPU 0 instructions: 590000000 cycles: 591007966 heartbeat IPC: 0.363 cumulative IPC: 0.9352 (Simulation time: 02 hr 57 min 29 sec)
*** Reached end of trace: (0, "traces/l1l2l3cache.champsimtrace")
Heartbeat CPU 0 instructions: 600000000 cycles: 618534766 heartbeat IPC: 0.3633 cumulative IPC: 0.9092 (Simulation time: 03 hr 04 min 27 sec)
Heartbeat CPU 0 instructions: 610000001 cycles: 627893960 heartbeat IPC: 1.068 cumulative IPC: 0.9116 (Simulation time: 03 hr 06 min 52 sec)
Heartbeat CPU 0 instructions: 620000000 cycles: 642812432 heartbeat IPC: 0.6703 cumulative IPC: 0.9059 (Simulation time: 03 hr 10 min 12 sec)
Heartbeat CPU 0 instructions: 630000003 cycles: 657752551 heartbeat IPC: 0.6693 cumulative IPC: 0.9004 (Simulation time: 03 hr 13 min 40 sec)
Heartbeat CPU 0 instructions: 640000000 cycles: 664876661 heartbeat IPC: 1.404 cumulative IPC: 0.9059 (Simulation time: 03 hr 15 min 47 sec)
Heartbeat CPU 0 instructions: 650000003 cycles: 667603933 heartbeat IPC: 3.667 cumulative IPC: 0.9175 (Simulation time: 03 hr 16 min 51 sec)
Simulation finished CPU 0 instructions: 600000000 cycles: 653983332 cumulative IPC: 0.9175 (Simulation time: 03 hr 16 min 51 sec)
Simulation complete CPU 0 instructions: 600000000 cycles: 653983332 cumulative IPC: 0.9175 (Simulation time: 03 hr 16 min 51 sec)

ChampSim completed all CPUs

=== Simulation ===
CPU 0 runs traces/l1l2l3cache.champsimtrace
Region of Interest Statistics

CPU 0 cumulative IPC: 0.9175 instructions: 600000000 cycles: 653983332
CPU 0 Branch Prediction Accuracy: 99.34% MPKI: 1.413 Average ROB Occupancy at Mispredict: 144.4
Branch type MPKI
BRANCH_DIRECT_JUMP: 8.5e-05
BRANCH_INDIRECT: 0.000237
BRANCH_CONDITIONAL: 1.41
BRANCH_DIRECT_CALL: 5e-06
BRANCH_INDIRECT_CALL: 4.67e-05
BRANCH_RETURN: 3.67e-05

LLC TOTAL        ACCESS:    5043918 HIT:     431432 MISS:    4612486
LLC LOAD         ACCESS:    1954446 HIT:     171963 MISS:    1782483
LLC RFO          ACCESS:     561711 HIT:      43420 MISS:     518291
LLC PREFETCH     ACCESS:    1954446 HIT:     171649 MISS:    1782797
LLC WRITE        ACCESS:     562069 HIT:      44214 MISS:     517855
LLC TRANSLATION  ACCESS:      11246 HIT:        186 MISS:      11060
LLC PREFETCH REQUESTED:    1954446 ISSUED:    1954446 USEFUL:       7965 USELESS:    1775136
LLC AVERAGE MISS LATENCY: 900.4 cycles
cpu0_DTLB TOTAL        ACCESS:  131633189 HIT:  129618262 MISS:    2014927
cpu0_DTLB LOAD         ACCESS:  131633189 HIT:  129618262 MISS:    2014927
cpu0_DTLB RFO          ACCESS:          0 HIT:          0 MISS:          0
cpu0_DTLB PREFETCH     ACCESS:          0 HIT:          0 MISS:          0
cpu0_DTLB WRITE        ACCESS:          0 HIT:          0 MISS:          0
cpu0_DTLB TRANSLATION  ACCESS:          0 HIT:          0 MISS:          0
cpu0_DTLB PREFETCH REQUESTED:          0 ISSUED:          0 USEFUL:          0 USELESS:          0
cpu0_DTLB AVERAGE MISS LATENCY: 22.01 cycles
cpu0_ITLB TOTAL        ACCESS:       4977 HIT:       4753 MISS:        224
cpu0_ITLB LOAD         ACCESS:       4977 HIT:       4753 MISS:        224
cpu0_ITLB RFO          ACCESS:          0 HIT:          0 MISS:          0
cpu0_ITLB PREFETCH     ACCESS:          0 HIT:          0 MISS:          0
cpu0_ITLB WRITE        ACCESS:          0 HIT:          0 MISS:          0
cpu0_ITLB TRANSLATION  ACCESS:          0 HIT:          0 MISS:          0
cpu0_ITLB PREFETCH REQUESTED:          0 ISSUED:          0 USEFUL:          0 USELESS:          0
cpu0_ITLB AVERAGE MISS LATENCY: 244.3 cycles
cpu0_L1D TOTAL        ACCESS:  179341539 HIT:  168051651 MISS:   11289888
cpu0_L1D LOAD         ACCESS:   71064460 HIT:   69024506 MISS:    2039954
cpu0_L1D RFO          ACCESS:          0 HIT:          0 MISS:          0
cpu0_L1D PREFETCH     ACCESS:          0 HIT:          0 MISS:          0
cpu0_L1D WRITE        ACCESS:  106971585 HIT:   98467907 MISS:    8503678
cpu0_L1D TRANSLATION  ACCESS:    1305494 HIT:     559238 MISS:     746256
cpu0_L1D PREFETCH REQUESTED:          0 ISSUED:          0 USEFUL:          0 USELESS:          0
cpu0_L1D AVERAGE MISS LATENCY: 193.5 cycles
cpu0_L1I TOTAL        ACCESS:       5676 HIT:       3442 MISS:       2234
cpu0_L1I LOAD         ACCESS:       5676 HIT:       3442 MISS:       2234
cpu0_L1I RFO          ACCESS:          0 HIT:          0 MISS:          0
cpu0_L1I PREFETCH     ACCESS:          0 HIT:          0 MISS:          0
cpu0_L1I WRITE        ACCESS:          0 HIT:          0 MISS:          0
cpu0_L1I TRANSLATION  ACCESS:          0 HIT:          0 MISS:          0
cpu0_L1I PREFETCH REQUESTED:          0 ISSUED:          0 USEFUL:          0 USELESS:          0
cpu0_L1I AVERAGE MISS LATENCY: 180.1 cycles
cpu0_L2C TOTAL        ACCESS:    3903908 HIT:    1376486 MISS:    2527422
cpu0_L2C LOAD         ACCESS:    2009352 HIT:      54906 MISS:    1954446
cpu0_L2C RFO          ACCESS:     573639 HIT:      11928 MISS:     561711
cpu0_L2C PREFETCH     ACCESS:          0 HIT:          0 MISS:          0
cpu0_L2C WRITE        ACCESS:     574683 HIT:     574664 MISS:         19
cpu0_L2C TRANSLATION  ACCESS:     746234 HIT:     734988 MISS:      11246
cpu0_L2C PREFETCH REQUESTED:          0 ISSUED:          0 USEFUL:          0 USELESS:          0
cpu0_L2C AVERAGE MISS LATENCY: 887.4 cycles
cpu0_STLB TOTAL        ACCESS:    1982671 HIT:     677185 MISS:    1305486
cpu0_STLB LOAD         ACCESS:    1982671 HIT:     677185 MISS:    1305486
cpu0_STLB RFO          ACCESS:          0 HIT:          0 MISS:          0
cpu0_STLB PREFETCH     ACCESS:          0 HIT:          0 MISS:          0
cpu0_STLB WRITE        ACCESS:          0 HIT:          0 MISS:          0
cpu0_STLB TRANSLATION  ACCESS:          0 HIT:          0 MISS:          0
cpu0_STLB PREFETCH REQUESTED:          0 ISSUED:          0 USEFUL:          0 USELESS:          0
cpu0_STLB AVERAGE MISS LATENCY: 20.92 cycles

DRAM Statistics

Channel 0 RQ ROW_BUFFER_HIT:     102029
  ROW_BUFFER_MISS:    3991693
 AVG DBUS CONGESTED CYCLE: 3.971
WQ ROW_BUFFER_HIT: Channel 0 
  ROW_BUFFER_MISS:     169039
  FULL:     350086
