WARNING: physical memory size is smaller than virtual memory size.

*** ChampSim Multicore Out-of-Order Simulator ***
Warmup Instructions: 50000000
Simulation Instructions: 600000000
Number of CPUs: 1
Page size: 4096

CPU 0 Tage branch predictor
Off-chip DRAM Size: 4 GiB Channels: 1 Width: 64-bit Data Race: 3200 MT/s
Heartbeat CPU 0 instructions: 10000004 cycles: 2777663 heartbeat IPC: 3.6 cumulative IPC: 3.6 (Simulation time: 00 hr 00 min 57 sec)
Heartbeat CPU 0 instructions: 20000001 cycles: 5634805 heartbeat IPC: 3.5 cumulative IPC: 3.549 (Simulation time: 00 hr 01 min 55 sec)
Heartbeat CPU 0 instructions: 30000000 cycles: 8491948 heartbeat IPC: 3.5 cumulative IPC: 3.533 (Simulation time: 00 hr 02 min 52 sec)
Heartbeat CPU 0 instructions: 40000003 cycles: 11120601 heartbeat IPC: 3.804 cumulative IPC: 3.597 (Simulation time: 00 hr 03 min 52 sec)
Heartbeat CPU 0 instructions: 50000003 cycles: 13620601 heartbeat IPC: 4 cumulative IPC: 3.671 (Simulation time: 00 hr 04 min 46 sec)
Warmup finished CPU 0 instructions: 50000003 cycles: 13620602 cumulative IPC: 3.671 (Simulation time: 00 hr 04 min 46 sec)
Warmup complete CPU 0 instructions: 50000003 cycles: 13620602 cumulative IPC: 3.671 (Simulation time: 00 hr 04 min 46 sec)
Heartbeat CPU 0 instructions: 60000002 cycles: 16120603 heartbeat IPC: 4 cumulative IPC: 4 (Simulation time: 00 hr 05 min 48 sec)
Heartbeat CPU 0 instructions: 70000001 cycles: 18620602 heartbeat IPC: 4 cumulative IPC: 4 (Simulation time: 00 hr 06 min 53 sec)
Heartbeat CPU 0 instructions: 80000000 cycles: 21120601 heartbeat IPC: 4 cumulative IPC: 4 (Simulation time: 00 hr 08 min 07 sec)
Heartbeat CPU 0 instructions: 90000003 cycles: 23620910 heartbeat IPC: 4 cumulative IPC: 4 (Simulation time: 00 hr 09 min 17 sec)
Heartbeat CPU 0 instructions: 100000003 cycles: 26120911 heartbeat IPC: 4 cumulative IPC: 4 (Simulation time: 00 hr 10 min 27 sec)
Heartbeat CPU 0 instructions: 110000004 cycles: 28620912 heartbeat IPC: 4 cumulative IPC: 4 (Simulation time: 00 hr 11 min 37 sec)
Heartbeat CPU 0 instructions: 120000003 cycles: 31120911 heartbeat IPC: 4 cumulative IPC: 4 (Simulation time: 00 hr 12 min 46 sec)
Heartbeat CPU 0 instructions: 130000002 cycles: 33620910 heartbeat IPC: 4 cumulative IPC: 4 (Simulation time: 00 hr 13 min 55 sec)
Heartbeat CPU 0 instructions: 140000004 cycles: 36121217 heartbeat IPC: 4 cumulative IPC: 4 (Simulation time: 00 hr 15 min 03 sec)
Heartbeat CPU 0 instructions: 150000000 cycles: 38621217 heartbeat IPC: 4 cumulative IPC: 4 (Simulation time: 00 hr 16 min 13 sec)
Heartbeat CPU 0 instructions: 160000001 cycles: 41121218 heartbeat IPC: 4 cumulative IPC: 4 (Simulation time: 00 hr 17 min 24 sec)
Heartbeat CPU 0 instructions: 170000004 cycles: 43621218 heartbeat IPC: 4 cumulative IPC: 4 (Simulation time: 00 hr 18 min 36 sec)
Heartbeat CPU 0 instructions: 180000000 cycles: 46122046 heartbeat IPC: 3.999 cumulative IPC: 4 (Simulation time: 00 hr 19 min 47 sec)
Heartbeat CPU 0 instructions: 190000004 cycles: 48622047 heartbeat IPC: 4 cumulative IPC: 4 (Simulation time: 00 hr 20 min 58 sec)
Heartbeat CPU 0 instructions: 200000002 cycles: 51122047 heartbeat IPC: 4 cumulative IPC: 4 (Simulation time: 00 hr 22 min 10 sec)
Heartbeat CPU 0 instructions: 210000003 cycles: 53622048 heartbeat IPC: 4 cumulative IPC: 4 (Simulation time: 00 hr 23 min 31 sec)
Heartbeat CPU 0 instructions: 220000001 cycles: 56122047 heartbeat IPC: 4 cumulative IPC: 4 (Simulation time: 00 hr 24 min 37 sec)
Heartbeat CPU 0 instructions: 230000002 cycles: 58622353 heartbeat IPC: 4 cumulative IPC: 4 (Simulation time: 00 hr 25 min 19 sec)
Heartbeat CPU 0 instructions: 240000003 cycles: 61122353 heartbeat IPC: 4 cumulative IPC: 4 (Simulation time: 00 hr 26 min 09 sec)
Heartbeat CPU 0 instructions: 250000004 cycles: 63622354 heartbeat IPC: 4 cumulative IPC: 4 (Simulation time: 00 hr 27 min 13 sec)
Heartbeat CPU 0 instructions: 260000000 cycles: 66122354 heartbeat IPC: 4 cumulative IPC: 4 (Simulation time: 00 hr 28 min 53 sec)
Heartbeat CPU 0 instructions: 270000003 cycles: 68623183 heartbeat IPC: 3.999 cumulative IPC: 4 (Simulation time: 00 hr 29 min 42 sec)
Heartbeat CPU 0 instructions: 280000001 cycles: 71123182 heartbeat IPC: 4 cumulative IPC: 4 (Simulation time: 00 hr 30 min 38 sec)
Heartbeat CPU 0 instructions: 290000000 cycles: 73623182 heartbeat IPC: 4 cumulative IPC: 4 (Simulation time: 00 hr 31 min 39 sec)
Heartbeat CPU 0 instructions: 300000001 cycles: 76123183 heartbeat IPC: 4 cumulative IPC: 4 (Simulation time: 00 hr 32 min 54 sec)
Heartbeat CPU 0 instructions: 310000000 cycles: 78623183 heartbeat IPC: 4 cumulative IPC: 4 (Simulation time: 00 hr 34 min 14 sec)
Heartbeat CPU 0 instructions: 320000000 cycles: 81124165 heartbeat IPC: 3.998 cumulative IPC: 4 (Simulation time: 00 hr 35 min 34 sec)
Heartbeat CPU 0 instructions: 330000000 cycles: 83624163 heartbeat IPC: 4 cumulative IPC: 4 (Simulation time: 00 hr 36 min 50 sec)
Heartbeat CPU 0 instructions: 340000002 cycles: 86124164 heartbeat IPC: 4 cumulative IPC: 4 (Simulation time: 00 hr 38 min 10 sec)
Heartbeat CPU 0 instructions: 350000003 cycles: 88624165 heartbeat IPC: 4 cumulative IPC: 4 (Simulation time: 00 hr 39 min 31 sec)
Heartbeat CPU 0 instructions: 360000001 cycles: 91124472 heartbeat IPC: 4 cumulative IPC: 4 (Simulation time: 00 hr 40 min 51 sec)
Heartbeat CPU 0 instructions: 370000002 cycles: 93624473 heartbeat IPC: 4 cumulative IPC: 4 (Simulation time: 00 hr 42 min 11 sec)
Heartbeat CPU 0 instructions: 380000002 cycles: 96124472 heartbeat IPC: 4 cumulative IPC: 4 (Simulation time: 00 hr 43 min 32 sec)
Heartbeat CPU 0 instructions: 390000004 cycles: 98624473 heartbeat IPC: 4 cumulative IPC: 4 (Simulation time: 00 hr 44 min 52 sec)
Heartbeat CPU 0 instructions: 400000000 cycles: 101124473 heartbeat IPC: 4 cumulative IPC: 4 (Simulation time: 00 hr 46 min 13 sec)
Heartbeat CPU 0 instructions: 410000003 cycles: 103624779 heartbeat IPC: 4 cumulative IPC: 4 (Simulation time: 00 hr 47 min 33 sec)
Heartbeat CPU 0 instructions: 420000003 cycles: 111899156 heartbeat IPC: 1.209 cumulative IPC: 3.765 (Simulation time: 00 hr 50 min 04 sec)
Heartbeat CPU 0 instructions: 430000003 cycles: 133966911 heartbeat IPC: 0.4531 cumulative IPC: 3.158 (Simulation time: 00 hr 57 min 02 sec)
Heartbeat CPU 0 instructions: 440000004 cycles: 152813649 heartbeat IPC: 0.5306 cumulative IPC: 2.802 (Simulation time: 01 hr 04 min 51 sec)
Heartbeat CPU 0 instructions: 450000000 cycles: 171635177 heartbeat IPC: 0.5313 cumulative IPC: 2.531 (Simulation time: 01 hr 07 min 25 sec)
Heartbeat CPU 0 instructions: 460000002 cycles: 190457918 heartbeat IPC: 0.5313 cumulative IPC: 2.319 (Simulation time: 01 hr 10 min 20 sec)
Heartbeat CPU 0 instructions: 470000003 cycles: 209298099 heartbeat IPC: 0.5308 cumulative IPC: 2.146 (Simulation time: 01 hr 13 min 48 sec)
Heartbeat CPU 0 instructions: 480000003 cycles: 228092250 heartbeat IPC: 0.5321 cumulative IPC: 2.005 (Simulation time: 01 hr 18 min 36 sec)
Heartbeat CPU 0 instructions: 490000004 cycles: 246865175 heartbeat IPC: 0.5327 cumulative IPC: 1.886 (Simulation time: 01 hr 23 min 27 sec)
Heartbeat CPU 0 instructions: 500000003 cycles: 265721567 heartbeat IPC: 0.5303 cumulative IPC: 1.785 (Simulation time: 01 hr 28 min 14 sec)
Heartbeat CPU 0 instructions: 510000002 cycles: 284491646 heartbeat IPC: 0.5328 cumulative IPC: 1.698 (Simulation time: 01 hr 33 min 02 sec)
Heartbeat CPU 0 instructions: 520000003 cycles: 303314814 heartbeat IPC: 0.5313 cumulative IPC: 1.622 (Simulation time: 01 hr 36 min 53 sec)
Heartbeat CPU 0 instructions: 530000003 cycles: 322090921 heartbeat IPC: 0.5326 cumulative IPC: 1.556 (Simulation time: 01 hr 39 min 51 sec)
Heartbeat CPU 0 instructions: 540000004 cycles: 340848140 heartbeat IPC: 0.5331 cumulative IPC: 1.497 (Simulation time: 01 hr 42 min 40 sec)
Heartbeat CPU 0 instructions: 550000000 cycles: 359662836 heartbeat IPC: 0.5315 cumulative IPC: 1.445 (Simulation time: 01 hr 45 min 28 sec)
Heartbeat CPU 0 instructions: 560000002 cycles: 378463136 heartbeat IPC: 0.5319 cumulative IPC: 1.398 (Simulation time: 01 hr 48 min 12 sec)
Heartbeat CPU 0 instructions: 570000002 cycles: 397297175 heartbeat IPC: 0.531 cumulative IPC: 1.355 (Simulation time: 01 hr 51 min 04 sec)
Heartbeat CPU 0 instructions: 580000000 cycles: 416109948 heartbeat IPC: 0.5316 cumulative IPC: 1.317 (Simulation time: 01 hr 54 min 38 sec)
Heartbeat CPU 0 instructions: 590000000 cycles: 434933560 heartbeat IPC: 0.5312 cumulative IPC: 1.282 (Simulation time: 01 hr 59 min 03 sec)
*** Reached end of trace: (0, "traces/l1l2l3cache.champsimtrace")
Heartbeat CPU 0 instructions: 600000000 cycles: 453700600 heartbeat IPC: 0.5328 cumulative IPC: 1.25 (Simulation time: 02 hr 03 min 33 sec)
Heartbeat CPU 0 instructions: 610000001 cycles: 464234800 heartbeat IPC: 0.9493 cumulative IPC: 1.243 (Simulation time: 02 hr 05 min 55 sec)
Heartbeat CPU 0 instructions: 620000001 cycles: 479709962 heartbeat IPC: 0.6462 cumulative IPC: 1.223 (Simulation time: 02 hr 09 min 28 sec)
Heartbeat CPU 0 instructions: 630000003 cycles: 495209296 heartbeat IPC: 0.6452 cumulative IPC: 1.204 (Simulation time: 02 hr 13 min 03 sec)
Heartbeat CPU 0 instructions: 640000000 cycles: 502401255 heartbeat IPC: 1.39 cumulative IPC: 1.207 (Simulation time: 02 hr 15 min 10 sec)
Heartbeat CPU 0 instructions: 650000001 cycles: 504901563 heartbeat IPC: 4 cumulative IPC: 1.221 (Simulation time: 02 hr 16 min 25 sec)
Simulation finished CPU 0 instructions: 600000003 cycles: 491280963 cumulative IPC: 1.221 (Simulation time: 02 hr 16 min 25 sec)
Simulation complete CPU 0 instructions: 600000003 cycles: 491280963 cumulative IPC: 1.221 (Simulation time: 02 hr 16 min 25 sec)

ChampSim completed all CPUs

=== Simulation ===
CPU 0 runs traces/l1l2l3cache.champsimtrace
Region of Interest Statistics

CPU 0 cumulative IPC: 1.221 instructions: 600000003 cycles: 491280963
CPU 0 Branch Prediction Accuracy: 99.99% MPKI: 0.01094 Average ROB Occupancy at Mispredict: 170.6
Branch type MPKI
BRANCH_DIRECT_JUMP: 8.5e-05
BRANCH_INDIRECT: 0.000237
BRANCH_CONDITIONAL: 0.0105
BRANCH_DIRECT_CALL: 5e-06
BRANCH_INDIRECT_CALL: 4.67e-05
BRANCH_RETURN: 3.67e-05

LLC TOTAL        ACCESS:    3095830 HIT:     750893 MISS:    2344937
LLC LOAD         ACCESS:    1954445 HIT:     180167 MISS:    1774278
LLC RFO          ACCESS:     561710 HIT:        971 MISS:     560739
LLC PREFETCH     ACCESS:       6368 HIT:       1731 MISS:       4637
LLC WRITE        ACCESS:     562060 HIT:     562003 MISS:         57
LLC TRANSLATION  ACCESS:      11247 HIT:       6021 MISS:       5226
LLC PREFETCH REQUESTED:       6368 ISSUED:       6368 USEFUL:       2278 USELESS:        122
LLC AVERAGE MISS LATENCY: 700.9 cycles
cpu0_DTLB TOTAL        ACCESS:  124322379 HIT:  122307461 MISS:    2014918
cpu0_DTLB LOAD         ACCESS:  124322379 HIT:  122307461 MISS:    2014918
cpu0_DTLB RFO          ACCESS:          0 HIT:          0 MISS:          0
cpu0_DTLB PREFETCH     ACCESS:          0 HIT:          0 MISS:          0
cpu0_DTLB WRITE        ACCESS:          0 HIT:          0 MISS:          0
cpu0_DTLB TRANSLATION  ACCESS:          0 HIT:          0 MISS:          0
cpu0_DTLB PREFETCH REQUESTED:          0 ISSUED:          0 USEFUL:          0 USELESS:          0
cpu0_DTLB AVERAGE MISS LATENCY: 18.4 cycles
cpu0_ITLB TOTAL        ACCESS:       5100 HIT:       4859 MISS:        241
cpu0_ITLB LOAD         ACCESS:       5100 HIT:       4859 MISS:        241
cpu0_ITLB RFO          ACCESS:          0 HIT:          0 MISS:          0
cpu0_ITLB PREFETCH     ACCESS:          0 HIT:          0 MISS:          0
cpu0_ITLB WRITE        ACCESS:          0 HIT:          0 MISS:          0
cpu0_ITLB TRANSLATION  ACCESS:          0 HIT:          0 MISS:          0
cpu0_ITLB PREFETCH REQUESTED:          0 ISSUED:          0 USEFUL:          0 USELESS:          0
cpu0_ITLB AVERAGE MISS LATENCY: 245.9 cycles
cpu0_L1D TOTAL        ACCESS:  172093073 HIT:  160486358 MISS:   11606715
cpu0_L1D LOAD         ACCESS:   63771057 HIT:   61723292 MISS:    2047765
cpu0_L1D RFO          ACCESS:          0 HIT:          0 MISS:          0
cpu0_L1D PREFETCH     ACCESS:          0 HIT:          0 MISS:          0
cpu0_L1D WRITE        ACCESS:  107016515 HIT:   98203801 MISS:    8812714
cpu0_L1D TRANSLATION  ACCESS:    1305501 HIT:     559265 MISS:     746236
cpu0_L1D PREFETCH REQUESTED:          0 ISSUED:          0 USEFUL:          0 USELESS:          0
cpu0_L1D AVERAGE MISS LATENCY: 141.1 cycles
cpu0_L1I TOTAL        ACCESS:       5880 HIT:       3304 MISS:       2576
cpu0_L1I LOAD         ACCESS:       5880 HIT:       3304 MISS:       2576
cpu0_L1I RFO          ACCESS:          0 HIT:          0 MISS:          0
cpu0_L1I PREFETCH     ACCESS:          0 HIT:          0 MISS:          0
cpu0_L1I WRITE        ACCESS:          0 HIT:          0 MISS:          0
cpu0_L1I TRANSLATION  ACCESS:          0 HIT:          0 MISS:          0
cpu0_L1I PREFETCH REQUESTED:          0 ISSUED:          0 USEFUL:          0 USELESS:          0
cpu0_L1I AVERAGE MISS LATENCY: 284 cycles
cpu0_L2C TOTAL        ACCESS:    3905736 HIT:    1378318 MISS:    2527418
cpu0_L2C LOAD         ACCESS:    2009352 HIT:      54907 MISS:    1954445
cpu0_L2C RFO          ACCESS:     574395 HIT:      12685 MISS:     561710
cpu0_L2C PREFETCH     ACCESS:          0 HIT:          0 MISS:          0
cpu0_L2C WRITE        ACCESS:     575767 HIT:     575751 MISS:         16
cpu0_L2C TRANSLATION  ACCESS:     746222 HIT:     734975 MISS:      11247
cpu0_L2C PREFETCH REQUESTED:          0 ISSUED:          0 USEFUL:          0 USELESS:          0
cpu0_L2C AVERAGE MISS LATENCY: 670.9 cycles
cpu0_STLB TOTAL        ACCESS:    1982622 HIT:     677129 MISS:    1305493
cpu0_STLB LOAD         ACCESS:    1982622 HIT:     677129 MISS:    1305493
cpu0_STLB RFO          ACCESS:          0 HIT:          0 MISS:          0
cpu0_STLB PREFETCH     ACCESS:          0 HIT:          0 MISS:          0
cpu0_STLB WRITE        ACCESS:          0 HIT:          0 MISS:          0
cpu0_STLB TRANSLATION  ACCESS:          0 HIT:          0 MISS:          0
cpu0_STLB PREFETCH REQUESTED:          0 ISSUED:          0 USEFUL:          0 USELESS:          0
cpu0_STLB AVERAGE MISS LATENCY: 15.36 cycles

DRAM Statistics

Channel 0 RQ ROW_BUFFER_HIT:     108938
  ROW_BUFFER_MISS:    2232455
 AVG DBUS CONGESTED CYCLE: 3.944
WQ ROW_BUFFER_HIT: Channel 0 
  ROW_BUFFER_MISS:     168743
  FULL:     393210
