WARNING: physical memory size is smaller than virtual memory size.

*** ChampSim Multicore Out-of-Order Simulator ***
Warmup Instructions: 50000000
Simulation Instructions: 600000000
Number of CPUs: 1
Page size: 4096

Off-chip DRAM Size: 4 GiB Channels: 1 Width: 64-bit Data Race: 3200 MT/s
Heartbeat CPU 0 instructions: 10000000 cycles: 2565785 heartbeat IPC: 3.897 cumulative IPC: 3.897 (Simulation time: 00 hr 01 min 10 sec)
Heartbeat CPU 0 instructions: 20000000 cycles: 5131274 heartbeat IPC: 3.898 cumulative IPC: 3.898 (Simulation time: 00 hr 02 min 28 sec)
Heartbeat CPU 0 instructions: 30000000 cycles: 7631274 heartbeat IPC: 4 cumulative IPC: 3.931 (Simulation time: 00 hr 03 min 39 sec)
Heartbeat CPU 0 instructions: 40000000 cycles: 10131274 heartbeat IPC: 4 cumulative IPC: 3.948 (Simulation time: 00 hr 04 min 48 sec)
Heartbeat CPU 0 instructions: 50000000 cycles: 12631274 heartbeat IPC: 4 cumulative IPC: 3.958 (Simulation time: 00 hr 05 min 54 sec)
Warmup finished CPU 0 instructions: 50000000 cycles: 12631275 cumulative IPC: 3.958 (Simulation time: 00 hr 05 min 54 sec)
Warmup complete CPU 0 instructions: 50000000 cycles: 12631275 cumulative IPC: 3.958 (Simulation time: 00 hr 05 min 54 sec)
Heartbeat CPU 0 instructions: 60000000 cycles: 16058852 heartbeat IPC: 2.918 cumulative IPC: 2.918 (Simulation time: 00 hr 07 min 24 sec)
Heartbeat CPU 0 instructions: 70000000 cycles: 19488286 heartbeat IPC: 2.916 cumulative IPC: 2.917 (Simulation time: 00 hr 08 min 59 sec)
Heartbeat CPU 0 instructions: 80000004 cycles: 22914704 heartbeat IPC: 2.919 cumulative IPC: 2.917 (Simulation time: 00 hr 10 min 23 sec)
Heartbeat CPU 0 instructions: 90000000 cycles: 26342392 heartbeat IPC: 2.917 cumulative IPC: 2.917 (Simulation time: 00 hr 11 min 52 sec)
Heartbeat CPU 0 instructions: 100000003 cycles: 29773619 heartbeat IPC: 2.914 cumulative IPC: 2.917 (Simulation time: 00 hr 13 min 16 sec)
Heartbeat CPU 0 instructions: 110000000 cycles: 33199684 heartbeat IPC: 2.919 cumulative IPC: 2.917 (Simulation time: 00 hr 14 min 40 sec)
Heartbeat CPU 0 instructions: 120000001 cycles: 36624207 heartbeat IPC: 2.92 cumulative IPC: 2.918 (Simulation time: 00 hr 16 min 16 sec)
Heartbeat CPU 0 instructions: 130000001 cycles: 40050788 heartbeat IPC: 2.918 cumulative IPC: 2.918 (Simulation time: 00 hr 17 min 06 sec)
Heartbeat CPU 0 instructions: 140000002 cycles: 43477136 heartbeat IPC: 2.919 cumulative IPC: 2.918 (Simulation time: 00 hr 17 min 59 sec)
Heartbeat CPU 0 instructions: 150000000 cycles: 46902215 heartbeat IPC: 2.92 cumulative IPC: 2.918 (Simulation time: 00 hr 18 min 55 sec)
Heartbeat CPU 0 instructions: 160000002 cycles: 50328722 heartbeat IPC: 2.918 cumulative IPC: 2.918 (Simulation time: 00 hr 19 min 54 sec)
Heartbeat CPU 0 instructions: 170000000 cycles: 53756209 heartbeat IPC: 2.918 cumulative IPC: 2.918 (Simulation time: 00 hr 20 min 55 sec)
Heartbeat CPU 0 instructions: 180000004 cycles: 57182235 heartbeat IPC: 2.919 cumulative IPC: 2.918 (Simulation time: 00 hr 21 min 49 sec)
Heartbeat CPU 0 instructions: 190000001 cycles: 60608942 heartbeat IPC: 2.918 cumulative IPC: 2.918 (Simulation time: 00 hr 22 min 43 sec)
Heartbeat CPU 0 instructions: 200000001 cycles: 64034698 heartbeat IPC: 2.919 cumulative IPC: 2.918 (Simulation time: 00 hr 23 min 37 sec)
Heartbeat CPU 0 instructions: 210000004 cycles: 67460593 heartbeat IPC: 2.919 cumulative IPC: 2.918 (Simulation time: 00 hr 24 min 32 sec)
Heartbeat CPU 0 instructions: 220000002 cycles: 70888099 heartbeat IPC: 2.918 cumulative IPC: 2.918 (Simulation time: 00 hr 25 min 30 sec)
Heartbeat CPU 0 instructions: 230000001 cycles: 74351672 heartbeat IPC: 2.887 cumulative IPC: 2.916 (Simulation time: 00 hr 26 min 35 sec)
Heartbeat CPU 0 instructions: 240000003 cycles: 78452953 heartbeat IPC: 2.438 cumulative IPC: 2.887 (Simulation time: 00 hr 27 min 46 sec)
Heartbeat CPU 0 instructions: 250000003 cycles: 81886628 heartbeat IPC: 2.912 cumulative IPC: 2.888 (Simulation time: 00 hr 28 min 42 sec)
Heartbeat CPU 0 instructions: 260000000 cycles: 85313366 heartbeat IPC: 2.918 cumulative IPC: 2.889 (Simulation time: 00 hr 29 min 36 sec)
Heartbeat CPU 0 instructions: 270000004 cycles: 88739361 heartbeat IPC: 2.919 cumulative IPC: 2.891 (Simulation time: 00 hr 30 min 30 sec)
Heartbeat CPU 0 instructions: 280000000 cycles: 92167188 heartbeat IPC: 2.917 cumulative IPC: 2.892 (Simulation time: 00 hr 31 min 24 sec)
Heartbeat CPU 0 instructions: 290000002 cycles: 95595323 heartbeat IPC: 2.917 cumulative IPC: 2.893 (Simulation time: 00 hr 32 min 17 sec)
Heartbeat CPU 0 instructions: 300000004 cycles: 99018889 heartbeat IPC: 2.921 cumulative IPC: 2.894 (Simulation time: 00 hr 33 min 11 sec)
Heartbeat CPU 0 instructions: 310000002 cycles: 102447012 heartbeat IPC: 2.917 cumulative IPC: 2.895 (Simulation time: 00 hr 34 min 06 sec)
Heartbeat CPU 0 instructions: 320000000 cycles: 105874822 heartbeat IPC: 2.917 cumulative IPC: 2.896 (Simulation time: 00 hr 34 min 59 sec)
Heartbeat CPU 0 instructions: 330000004 cycles: 109301571 heartbeat IPC: 2.918 cumulative IPC: 2.896 (Simulation time: 00 hr 35 min 53 sec)
Heartbeat CPU 0 instructions: 340000000 cycles: 112728828 heartbeat IPC: 2.918 cumulative IPC: 2.897 (Simulation time: 00 hr 36 min 48 sec)
Heartbeat CPU 0 instructions: 350000003 cycles: 116157749 heartbeat IPC: 2.916 cumulative IPC: 2.898 (Simulation time: 00 hr 37 min 41 sec)
Heartbeat CPU 0 instructions: 360000003 cycles: 119585397 heartbeat IPC: 2.917 cumulative IPC: 2.898 (Simulation time: 00 hr 38 min 37 sec)
Heartbeat CPU 0 instructions: 370000004 cycles: 123011789 heartbeat IPC: 2.919 cumulative IPC: 2.899 (Simulation time: 00 hr 39 min 31 sec)
Heartbeat CPU 0 instructions: 380000003 cycles: 126437323 heartbeat IPC: 2.919 cumulative IPC: 2.9 (Simulation time: 00 hr 40 min 26 sec)
Heartbeat CPU 0 instructions: 390000000 cycles: 129858302 heartbeat IPC: 2.923 cumulative IPC: 2.9 (Simulation time: 00 hr 41 min 23 sec)
Heartbeat CPU 0 instructions: 400000002 cycles: 133285682 heartbeat IPC: 2.918 cumulative IPC: 2.901 (Simulation time: 00 hr 42 min 20 sec)
Heartbeat CPU 0 instructions: 410000003 cycles: 136713178 heartbeat IPC: 2.918 cumulative IPC: 2.901 (Simulation time: 00 hr 43 min 15 sec)
Heartbeat CPU 0 instructions: 420000001 cycles: 140141006 heartbeat IPC: 2.917 cumulative IPC: 2.902 (Simulation time: 00 hr 44 min 13 sec)
Heartbeat CPU 0 instructions: 430000001 cycles: 143569756 heartbeat IPC: 2.917 cumulative IPC: 2.902 (Simulation time: 00 hr 45 min 07 sec)
Heartbeat CPU 0 instructions: 440000002 cycles: 146994316 heartbeat IPC: 2.92 cumulative IPC: 2.903 (Simulation time: 00 hr 46 min 01 sec)
Heartbeat CPU 0 instructions: 450000001 cycles: 149887151 heartbeat IPC: 3.457 cumulative IPC: 2.914 (Simulation time: 00 hr 46 min 56 sec)
Heartbeat CPU 0 instructions: 460000002 cycles: 153197716 heartbeat IPC: 3.021 cumulative IPC: 2.917 (Simulation time: 00 hr 48 min 05 sec)
Heartbeat CPU 0 instructions: 470000004 cycles: 156621026 heartbeat IPC: 2.921 cumulative IPC: 2.917 (Simulation time: 00 hr 49 min 02 sec)
Heartbeat CPU 0 instructions: 480000000 cycles: 160049253 heartbeat IPC: 2.917 cumulative IPC: 2.917 (Simulation time: 00 hr 49 min 57 sec)
Heartbeat CPU 0 instructions: 490000000 cycles: 163474628 heartbeat IPC: 2.919 cumulative IPC: 2.917 (Simulation time: 00 hr 50 min 53 sec)
Heartbeat CPU 0 instructions: 500000002 cycles: 166901390 heartbeat IPC: 2.918 cumulative IPC: 2.917 (Simulation time: 00 hr 51 min 48 sec)
Heartbeat CPU 0 instructions: 510000001 cycles: 170330323 heartbeat IPC: 2.916 cumulative IPC: 2.917 (Simulation time: 00 hr 52 min 41 sec)
Heartbeat CPU 0 instructions: 520000003 cycles: 173755654 heartbeat IPC: 2.919 cumulative IPC: 2.917 (Simulation time: 00 hr 53 min 35 sec)
Heartbeat CPU 0 instructions: 530000002 cycles: 177179524 heartbeat IPC: 2.921 cumulative IPC: 2.917 (Simulation time: 00 hr 54 min 39 sec)
Heartbeat CPU 0 instructions: 540000000 cycles: 180608223 heartbeat IPC: 2.917 cumulative IPC: 2.917 (Simulation time: 00 hr 55 min 39 sec)
Heartbeat CPU 0 instructions: 550000000 cycles: 184034464 heartbeat IPC: 2.919 cumulative IPC: 2.917 (Simulation time: 00 hr 56 min 43 sec)
Heartbeat CPU 0 instructions: 560000001 cycles: 187459213 heartbeat IPC: 2.92 cumulative IPC: 2.917 (Simulation time: 00 hr 57 min 46 sec)
Heartbeat CPU 0 instructions: 570000001 cycles: 190884695 heartbeat IPC: 2.919 cumulative IPC: 2.917 (Simulation time: 00 hr 58 min 46 sec)
Heartbeat CPU 0 instructions: 580000000 cycles: 194314484 heartbeat IPC: 2.916 cumulative IPC: 2.917 (Simulation time: 00 hr 59 min 44 sec)
Heartbeat CPU 0 instructions: 590000003 cycles: 197740869 heartbeat IPC: 2.919 cumulative IPC: 2.917 (Simulation time: 01 hr 00 min 41 sec)
*** Reached end of trace: (0, "traces/l1l2cache.champsimtrace")
Heartbeat CPU 0 instructions: 600000001 cycles: 201169005 heartbeat IPC: 2.917 cumulative IPC: 2.917 (Simulation time: 01 hr 01 min 37 sec)
Heartbeat CPU 0 instructions: 610000000 cycles: 206131847 heartbeat IPC: 2.015 cumulative IPC: 2.894 (Simulation time: 01 hr 02 min 55 sec)
Heartbeat CPU 0 instructions: 620000004 cycles: 208882575 heartbeat IPC: 3.635 cumulative IPC: 2.904 (Simulation time: 01 hr 04 min 03 sec)
Heartbeat CPU 0 instructions: 630000004 cycles: 212305651 heartbeat IPC: 2.921 cumulative IPC: 2.905 (Simulation time: 01 hr 05 min 02 sec)
Heartbeat CPU 0 instructions: 640000000 cycles: 215730579 heartbeat IPC: 2.92 cumulative IPC: 2.905 (Simulation time: 01 hr 05 min 57 sec)
Heartbeat CPU 0 instructions: 650000004 cycles: 219159983 heartbeat IPC: 2.916 cumulative IPC: 2.905 (Simulation time: 01 hr 06 min 58 sec)
Simulation finished CPU 0 instructions: 600000004 cycles: 206528709 cumulative IPC: 2.905 (Simulation time: 01 hr 06 min 58 sec)
Simulation complete CPU 0 instructions: 600000004 cycles: 206528709 cumulative IPC: 2.905 (Simulation time: 01 hr 06 min 58 sec)

ChampSim completed all CPUs

=== Simulation ===
CPU 0 runs traces/l1l2cache.champsimtrace
Region of Interest Statistics

CPU 0 cumulative IPC: 2.905 instructions: 600000004 cycles: 206528709
CPU 0 Branch Prediction Accuracy: 93.04% MPKI: 5.913 Average ROB Occupancy at Mispredict: 67.87
Branch type MPKI
BRANCH_DIRECT_JUMP: 9.5e-05
BRANCH_INDIRECT: 0.000282
BRANCH_CONDITIONAL: 5.91
BRANCH_DIRECT_CALL: 3.33e-06
BRANCH_INDIRECT_CALL: 4.83e-05
BRANCH_RETURN: 3.33e-05

LLC TOTAL        ACCESS:     408767 HIT:     285470 MISS:     123297
LLC LOAD         ACCESS:      59445 HIT:      46543 MISS:      12902
LLC RFO          ACCESS:      99913 HIT:      60817 MISS:      39096
LLC PREFETCH     ACCESS:     149104 HIT:     112103 MISS:      37001
LLC WRITE        ACCESS:     100300 HIT:      66007 MISS:      34293
LLC TRANSLATION  ACCESS:          5 HIT:          0 MISS:          5
LLC PREFETCH REQUESTED:     149104 ISSUED:     149104 USEFUL:      16303 USELESS:        245
LLC AVERAGE MISS LATENCY: 255.6 cycles
cpu0_DTLB TOTAL        ACCESS:   82404628 HIT:   82393775 MISS:      10853
cpu0_DTLB LOAD         ACCESS:   82404628 HIT:   82393775 MISS:      10853
cpu0_DTLB RFO          ACCESS:          0 HIT:          0 MISS:          0
cpu0_DTLB PREFETCH     ACCESS:          0 HIT:          0 MISS:          0
cpu0_DTLB WRITE        ACCESS:          0 HIT:          0 MISS:          0
cpu0_DTLB TRANSLATION  ACCESS:          0 HIT:          0 MISS:          0
cpu0_DTLB PREFETCH REQUESTED:          0 ISSUED:          0 USEFUL:          0 USELESS:          0
cpu0_DTLB AVERAGE MISS LATENCY: 5.878 cycles
cpu0_ITLB TOTAL        ACCESS:       5577 HIT:       5360 MISS:        217
cpu0_ITLB LOAD         ACCESS:       5577 HIT:       5360 MISS:        217
cpu0_ITLB RFO          ACCESS:          0 HIT:          0 MISS:          0
cpu0_ITLB PREFETCH     ACCESS:          0 HIT:          0 MISS:          0
cpu0_ITLB WRITE        ACCESS:          0 HIT:          0 MISS:          0
cpu0_ITLB TRANSLATION  ACCESS:          0 HIT:          0 MISS:          0
cpu0_ITLB PREFETCH REQUESTED:          0 ISSUED:          0 USEFUL:          0 USELESS:          0
cpu0_ITLB AVERAGE MISS LATENCY: 6.498 cycles
cpu0_L1D TOTAL        ACCESS:  104688523 HIT:  103084068 MISS:    1604455
cpu0_L1D LOAD         ACCESS:   45424515 HIT:   45039540 MISS:     384975
cpu0_L1D RFO          ACCESS:          0 HIT:          0 MISS:          0
cpu0_L1D PREFETCH     ACCESS:          0 HIT:          0 MISS:          0
cpu0_L1D WRITE        ACCESS:   59263750 HIT:   58044275 MISS:    1219475
cpu0_L1D TRANSLATION  ACCESS:        258 HIT:        253 MISS:          5
cpu0_L1D PREFETCH REQUESTED:          0 ISSUED:          0 USEFUL:          0 USELESS:          0
cpu0_L1D AVERAGE MISS LATENCY: 15.32 cycles
cpu0_L1I TOTAL        ACCESS:       6342 HIT:       4051 MISS:       2291
cpu0_L1I LOAD         ACCESS:       6342 HIT:       4051 MISS:       2291
cpu0_L1I RFO          ACCESS:          0 HIT:          0 MISS:          0
cpu0_L1I PREFETCH     ACCESS:          0 HIT:          0 MISS:          0
cpu0_L1I WRITE        ACCESS:          0 HIT:          0 MISS:          0
cpu0_L1I TRANSLATION  ACCESS:          0 HIT:          0 MISS:          0
cpu0_L1I PREFETCH REQUESTED:          0 ISSUED:          0 USEFUL:          0 USELESS:          0
cpu0_L1I AVERAGE MISS LATENCY: 366.9 cycles
cpu0_L2C TOTAL        ACCESS:     265741 HIT:     106357 MISS:     159384
cpu0_L2C LOAD         ACCESS:      63734 HIT:       4289 MISS:      59445
cpu0_L2C RFO          ACCESS:     100742 HIT:        829 MISS:      99913
cpu0_L2C PREFETCH     ACCESS:          0 HIT:          0 MISS:          0
cpu0_L2C WRITE        ACCESS:     101260 HIT:     101239 MISS:         21
cpu0_L2C TRANSLATION  ACCESS:          5 HIT:          0 MISS:          5
cpu0_L2C PREFETCH REQUESTED:          0 ISSUED:          0 USEFUL:          0 USELESS:          0
cpu0_L2C AVERAGE MISS LATENCY: 187.2 cycles
cpu0_STLB TOTAL        ACCESS:       3912 HIT:       3655 MISS:        257
cpu0_STLB LOAD         ACCESS:       3912 HIT:       3655 MISS:        257
cpu0_STLB RFO          ACCESS:          0 HIT:          0 MISS:          0
cpu0_STLB PREFETCH     ACCESS:          0 HIT:          0 MISS:          0
cpu0_STLB WRITE        ACCESS:          0 HIT:          0 MISS:          0
cpu0_STLB TRANSLATION  ACCESS:          0 HIT:          0 MISS:          0
cpu0_STLB PREFETCH REQUESTED:          0 ISSUED:          0 USEFUL:          0 USELESS:          0
cpu0_STLB AVERAGE MISS LATENCY: 218.4 cycles

DRAM Statistics

Channel 0 RQ ROW_BUFFER_HIT:      33863
  ROW_BUFFER_MISS:      29331
 AVG DBUS CONGESTED CYCLE: 3.95
WQ ROW_BUFFER_HIT: Channel 0 
  ROW_BUFFER_MISS:      15262
  FULL:      20049
