WARNING: physical memory size is smaller than virtual memory size.

*** ChampSim Multicore Out-of-Order Simulator ***
Warmup Instructions: 50000000
Simulation Instructions: 600000000
Number of CPUs: 1
Page size: 4096

Off-chip DRAM Size: 4 GiB Channels: 1 Width: 64-bit Data Race: 3200 MT/s
Heartbeat CPU 0 instructions: 10000004 cycles: 2777663 heartbeat IPC: 3.6 cumulative IPC: 3.6 (Simulation time: 00 hr 00 min 27 sec)
Heartbeat CPU 0 instructions: 20000001 cycles: 5634805 heartbeat IPC: 3.5 cumulative IPC: 3.549 (Simulation time: 00 hr 00 min 59 sec)
Heartbeat CPU 0 instructions: 30000000 cycles: 8491948 heartbeat IPC: 3.5 cumulative IPC: 3.533 (Simulation time: 00 hr 01 min 34 sec)
Heartbeat CPU 0 instructions: 40000003 cycles: 11120601 heartbeat IPC: 3.804 cumulative IPC: 3.597 (Simulation time: 00 hr 02 min 11 sec)
Heartbeat CPU 0 instructions: 50000003 cycles: 13620601 heartbeat IPC: 4 cumulative IPC: 3.671 (Simulation time: 00 hr 02 min 48 sec)
Warmup finished CPU 0 instructions: 50000003 cycles: 13620602 cumulative IPC: 3.671 (Simulation time: 00 hr 02 min 48 sec)
Warmup complete CPU 0 instructions: 50000003 cycles: 13620602 cumulative IPC: 3.671 (Simulation time: 00 hr 02 min 48 sec)
Heartbeat CPU 0 instructions: 60000002 cycles: 16347845 heartbeat IPC: 3.667 cumulative IPC: 3.667 (Simulation time: 00 hr 03 min 35 sec)
Heartbeat CPU 0 instructions: 70000001 cycles: 19075145 heartbeat IPC: 3.667 cumulative IPC: 3.667 (Simulation time: 00 hr 04 min 25 sec)
Heartbeat CPU 0 instructions: 80000001 cycles: 21802387 heartbeat IPC: 3.667 cumulative IPC: 3.667 (Simulation time: 00 hr 05 min 16 sec)
Heartbeat CPU 0 instructions: 90000000 cycles: 24530053 heartbeat IPC: 3.666 cumulative IPC: 3.667 (Simulation time: 00 hr 06 min 17 sec)
Heartbeat CPU 0 instructions: 100000003 cycles: 27257296 heartbeat IPC: 3.667 cumulative IPC: 3.667 (Simulation time: 00 hr 07 min 23 sec)
Heartbeat CPU 0 instructions: 110000004 cycles: 29984599 heartbeat IPC: 3.667 cumulative IPC: 3.667 (Simulation time: 00 hr 08 min 27 sec)
Heartbeat CPU 0 instructions: 120000003 cycles: 32711869 heartbeat IPC: 3.667 cumulative IPC: 3.667 (Simulation time: 00 hr 09 min 32 sec)
Heartbeat CPU 0 instructions: 130000003 cycles: 35439142 heartbeat IPC: 3.667 cumulative IPC: 3.667 (Simulation time: 00 hr 10 min 32 sec)
Heartbeat CPU 0 instructions: 140000002 cycles: 38166442 heartbeat IPC: 3.667 cumulative IPC: 3.667 (Simulation time: 00 hr 11 min 32 sec)
Heartbeat CPU 0 instructions: 150000000 cycles: 40893685 heartbeat IPC: 3.667 cumulative IPC: 3.667 (Simulation time: 00 hr 12 min 31 sec)
Heartbeat CPU 0 instructions: 160000001 cycles: 43620989 heartbeat IPC: 3.667 cumulative IPC: 3.667 (Simulation time: 00 hr 13 min 27 sec)
Heartbeat CPU 0 instructions: 170000004 cycles: 46348230 heartbeat IPC: 3.667 cumulative IPC: 3.667 (Simulation time: 00 hr 14 min 24 sec)
Heartbeat CPU 0 instructions: 180000000 cycles: 49075531 heartbeat IPC: 3.667 cumulative IPC: 3.667 (Simulation time: 00 hr 15 min 21 sec)
Heartbeat CPU 0 instructions: 190000004 cycles: 51802817 heartbeat IPC: 3.667 cumulative IPC: 3.667 (Simulation time: 00 hr 16 min 19 sec)
Heartbeat CPU 0 instructions: 200000002 cycles: 54530075 heartbeat IPC: 3.667 cumulative IPC: 3.667 (Simulation time: 00 hr 17 min 17 sec)
Heartbeat CPU 0 instructions: 210000003 cycles: 57257378 heartbeat IPC: 3.667 cumulative IPC: 3.667 (Simulation time: 00 hr 18 min 14 sec)
Heartbeat CPU 0 instructions: 220000001 cycles: 59984620 heartbeat IPC: 3.667 cumulative IPC: 3.667 (Simulation time: 00 hr 19 min 14 sec)
Heartbeat CPU 0 instructions: 230000002 cycles: 62713014 heartbeat IPC: 3.665 cumulative IPC: 3.667 (Simulation time: 00 hr 20 min 14 sec)
Heartbeat CPU 0 instructions: 240000003 cycles: 65440256 heartbeat IPC: 3.667 cumulative IPC: 3.667 (Simulation time: 00 hr 21 min 14 sec)
Heartbeat CPU 0 instructions: 250000004 cycles: 68167559 heartbeat IPC: 3.667 cumulative IPC: 3.667 (Simulation time: 00 hr 22 min 11 sec)
Heartbeat CPU 0 instructions: 260000000 cycles: 70894842 heartbeat IPC: 3.667 cumulative IPC: 3.667 (Simulation time: 00 hr 23 min 12 sec)
Heartbeat CPU 0 instructions: 270000003 cycles: 73622459 heartbeat IPC: 3.666 cumulative IPC: 3.667 (Simulation time: 00 hr 24 min 13 sec)
Heartbeat CPU 0 instructions: 280000001 cycles: 76349760 heartbeat IPC: 3.667 cumulative IPC: 3.667 (Simulation time: 00 hr 25 min 19 sec)
Heartbeat CPU 0 instructions: 290000000 cycles: 79077001 heartbeat IPC: 3.667 cumulative IPC: 3.667 (Simulation time: 00 hr 26 min 20 sec)
Heartbeat CPU 0 instructions: 300000001 cycles: 81804304 heartbeat IPC: 3.667 cumulative IPC: 3.667 (Simulation time: 00 hr 27 min 25 sec)
Heartbeat CPU 0 instructions: 310000000 cycles: 84531546 heartbeat IPC: 3.667 cumulative IPC: 3.667 (Simulation time: 00 hr 28 min 27 sec)
Heartbeat CPU 0 instructions: 320000000 cycles: 87260228 heartbeat IPC: 3.665 cumulative IPC: 3.667 (Simulation time: 00 hr 29 min 30 sec)
Heartbeat CPU 0 instructions: 330000001 cycles: 89987524 heartbeat IPC: 3.667 cumulative IPC: 3.667 (Simulation time: 00 hr 30 min 27 sec)
Heartbeat CPU 0 instructions: 340000002 cycles: 92714771 heartbeat IPC: 3.667 cumulative IPC: 3.667 (Simulation time: 00 hr 31 min 30 sec)
Heartbeat CPU 0 instructions: 350000003 cycles: 95442074 heartbeat IPC: 3.667 cumulative IPC: 3.667 (Simulation time: 00 hr 32 min 27 sec)
Heartbeat CPU 0 instructions: 360000001 cycles: 98169797 heartbeat IPC: 3.666 cumulative IPC: 3.667 (Simulation time: 00 hr 33 min 24 sec)
Heartbeat CPU 0 instructions: 370000002 cycles: 100897101 heartbeat IPC: 3.667 cumulative IPC: 3.667 (Simulation time: 00 hr 34 min 20 sec)
Heartbeat CPU 0 instructions: 380000001 cycles: 103624355 heartbeat IPC: 3.667 cumulative IPC: 3.667 (Simulation time: 00 hr 35 min 19 sec)
Heartbeat CPU 0 instructions: 390000004 cycles: 106351644 heartbeat IPC: 3.667 cumulative IPC: 3.667 (Simulation time: 00 hr 36 min 17 sec)
Heartbeat CPU 0 instructions: 400000000 cycles: 109078944 heartbeat IPC: 3.667 cumulative IPC: 3.667 (Simulation time: 00 hr 37 min 17 sec)
Heartbeat CPU 0 instructions: 410000003 cycles: 111806281 heartbeat IPC: 3.667 cumulative IPC: 3.667 (Simulation time: 00 hr 38 min 20 sec)
Heartbeat CPU 0 instructions: 420000003 cycles: 122176275 heartbeat IPC: 0.9643 cumulative IPC: 3.408 (Simulation time: 00 hr 40 min 44 sec)
Heartbeat CPU 0 instructions: 430000002 cycles: 144362473 heartbeat IPC: 0.4507 cumulative IPC: 2.906 (Simulation time: 00 hr 45 min 39 sec)
Heartbeat CPU 0 instructions: 440000004 cycles: 163362649 heartbeat IPC: 0.5263 cumulative IPC: 2.604 (Simulation time: 00 hr 49 min 53 sec)
Heartbeat CPU 0 instructions: 450000000 cycles: 182063633 heartbeat IPC: 0.5347 cumulative IPC: 2.375 (Simulation time: 00 hr 53 min 57 sec)
Heartbeat CPU 0 instructions: 460000001 cycles: 200696595 heartbeat IPC: 0.5367 cumulative IPC: 2.192 (Simulation time: 00 hr 57 min 58 sec)
Heartbeat CPU 0 instructions: 470000003 cycles: 219321429 heartbeat IPC: 0.5369 cumulative IPC: 2.042 (Simulation time: 01 hr 02 min 09 sec)
Heartbeat CPU 0 instructions: 480000003 cycles: 237945371 heartbeat IPC: 0.5369 cumulative IPC: 1.917 (Simulation time: 01 hr 07 min 53 sec)
Heartbeat CPU 0 instructions: 490000002 cycles: 256542173 heartbeat IPC: 0.5377 cumulative IPC: 1.811 (Simulation time: 01 hr 15 min 31 sec)
Heartbeat CPU 0 instructions: 500000003 cycles: 275164613 heartbeat IPC: 0.537 cumulative IPC: 1.721 (Simulation time: 01 hr 23 min 10 sec)
Heartbeat CPU 0 instructions: 510000002 cycles: 293749371 heartbeat IPC: 0.5381 cumulative IPC: 1.642 (Simulation time: 01 hr 31 min 01 sec)
Heartbeat CPU 0 instructions: 520000003 cycles: 312357844 heartbeat IPC: 0.5374 cumulative IPC: 1.573 (Simulation time: 01 hr 36 min 44 sec)
Heartbeat CPU 0 instructions: 530000004 cycles: 330950373 heartbeat IPC: 0.5379 cumulative IPC: 1.513 (Simulation time: 01 hr 45 min 20 sec)
Heartbeat CPU 0 instructions: 540000004 cycles: 349522257 heartbeat IPC: 0.5384 cumulative IPC: 1.459 (Simulation time: 01 hr 53 min 31 sec)
Heartbeat CPU 0 instructions: 550000000 cycles: 368139081 heartbeat IPC: 0.5371 cumulative IPC: 1.41 (Simulation time: 02 hr 01 min 50 sec)
Heartbeat CPU 0 instructions: 560000002 cycles: 386764377 heartbeat IPC: 0.5369 cumulative IPC: 1.367 (Simulation time: 02 hr 08 min 34 sec)
Heartbeat CPU 0 instructions: 570000002 cycles: 405397980 heartbeat IPC: 0.5367 cumulative IPC: 1.327 (Simulation time: 02 hr 17 min 19 sec)
Heartbeat CPU 0 instructions: 580000000 cycles: 424032413 heartbeat IPC: 0.5366 cumulative IPC: 1.291 (Simulation time: 02 hr 24 min 18 sec)
Heartbeat CPU 0 instructions: 590000000 cycles: 442683109 heartbeat IPC: 0.5362 cumulative IPC: 1.259 (Simulation time: 02 hr 28 min 48 sec)
*** Reached end of trace: (0, "traces/l1l2l3cache.champsimtrace")
Heartbeat CPU 0 instructions: 600000001 cycles: 461274364 heartbeat IPC: 0.5379 cumulative IPC: 1.229 (Simulation time: 02 hr 33 min 04 sec)
Heartbeat CPU 0 instructions: 610000001 cycles: 471240845 heartbeat IPC: 1.003 cumulative IPC: 1.224 (Simulation time: 02 hr 35 min 18 sec)
Heartbeat CPU 0 instructions: 620000004 cycles: 486599807 heartbeat IPC: 0.6511 cumulative IPC: 1.205 (Simulation time: 02 hr 38 min 48 sec)
Heartbeat CPU 0 instructions: 630000000 cycles: 501894660 heartbeat IPC: 0.6538 cumulative IPC: 1.188 (Simulation time: 02 hr 42 min 24 sec)
Heartbeat CPU 0 instructions: 640000000 cycles: 509138996 heartbeat IPC: 1.38 cumulative IPC: 1.191 (Simulation time: 02 hr 44 min 22 sec)
Heartbeat CPU 0 instructions: 650000003 cycles: 511866268 heartbeat IPC: 3.667 cumulative IPC: 1.204 (Simulation time: 02 hr 45 min 33 sec)
Simulation finished CPU 0 instructions: 600000000 cycles: 498245667 cumulative IPC: 1.204 (Simulation time: 02 hr 45 min 33 sec)
Simulation complete CPU 0 instructions: 600000000 cycles: 498245667 cumulative IPC: 1.204 (Simulation time: 02 hr 45 min 33 sec)

ChampSim completed all CPUs

=== Simulation ===
CPU 0 runs traces/l1l2l3cache.champsimtrace
Region of Interest Statistics

CPU 0 cumulative IPC: 1.204 instructions: 600000000 cycles: 498245667
CPU 0 Branch Prediction Accuracy: 99.34% MPKI: 1.413 Average ROB Occupancy at Mispredict: 143.1
Branch type MPKI
BRANCH_DIRECT_JUMP: 8.5e-05
BRANCH_INDIRECT: 0.000237
BRANCH_CONDITIONAL: 1.41
BRANCH_DIRECT_CALL: 5e-06
BRANCH_INDIRECT_CALL: 4.67e-05
BRANCH_RETURN: 3.67e-05

LLC TOTAL        ACCESS:    3095785 HIT:     303732 MISS:    2792053
LLC LOAD         ACCESS:    1954442 HIT:     206459 MISS:    1747983
LLC RFO          ACCESS:     561712 HIT:      28015 MISS:     533697
LLC PREFETCH     ACCESS:       6323 HIT:       1669 MISS:       4654
LLC WRITE        ACCESS:     562065 HIT:      59341 MISS:     502724
LLC TRANSLATION  ACCESS:      11243 HIT:       8248 MISS:       2995
LLC PREFETCH REQUESTED:       6323 ISSUED:       6323 USEFUL:       2309 USELESS:        149
LLC AVERAGE MISS LATENCY: 571.8 cycles
cpu0_DTLB TOTAL        ACCESS:  131782710 HIT:  129767821 MISS:    2014889
cpu0_DTLB LOAD         ACCESS:  131782710 HIT:  129767821 MISS:    2014889
cpu0_DTLB RFO          ACCESS:          0 HIT:          0 MISS:          0
cpu0_DTLB PREFETCH     ACCESS:          0 HIT:          0 MISS:          0
cpu0_DTLB WRITE        ACCESS:          0 HIT:          0 MISS:          0
cpu0_DTLB TRANSLATION  ACCESS:          0 HIT:          0 MISS:          0
cpu0_DTLB PREFETCH REQUESTED:          0 ISSUED:          0 USEFUL:          0 USELESS:          0
cpu0_DTLB AVERAGE MISS LATENCY: 17.9 cycles
cpu0_ITLB TOTAL        ACCESS:       5001 HIT:       4780 MISS:        221
cpu0_ITLB LOAD         ACCESS:       5001 HIT:       4780 MISS:        221
cpu0_ITLB RFO          ACCESS:          0 HIT:          0 MISS:          0
cpu0_ITLB PREFETCH     ACCESS:          0 HIT:          0 MISS:          0
cpu0_ITLB WRITE        ACCESS:          0 HIT:          0 MISS:          0
cpu0_ITLB TRANSLATION  ACCESS:          0 HIT:          0 MISS:          0
cpu0_ITLB PREFETCH REQUESTED:          0 ISSUED:          0 USEFUL:          0 USELESS:          0
cpu0_ITLB AVERAGE MISS LATENCY: 255.1 cycles
cpu0_L1D TOTAL        ACCESS:  179323014 HIT:  168082578 MISS:   11240436
cpu0_L1D LOAD         ACCESS:   70984577 HIT:   68936931 MISS:    2047646
cpu0_L1D RFO          ACCESS:          0 HIT:          0 MISS:          0
cpu0_L1D PREFETCH     ACCESS:          0 HIT:          0 MISS:          0
cpu0_L1D WRITE        ACCESS:  107032934 HIT:   98586397 MISS:    8446537
cpu0_L1D TRANSLATION  ACCESS:    1305503 HIT:     559250 MISS:     746253
cpu0_L1D PREFETCH REQUESTED:          0 ISSUED:          0 USEFUL:          0 USELESS:          0
cpu0_L1D AVERAGE MISS LATENCY: 141.6 cycles
cpu0_L1I TOTAL        ACCESS:       5705 HIT:       3429 MISS:       2276
cpu0_L1I LOAD         ACCESS:       5705 HIT:       3429 MISS:       2276
cpu0_L1I RFO          ACCESS:          0 HIT:          0 MISS:          0
cpu0_L1I PREFETCH     ACCESS:          0 HIT:          0 MISS:          0
cpu0_L1I WRITE        ACCESS:          0 HIT:          0 MISS:          0
cpu0_L1I TRANSLATION  ACCESS:          0 HIT:          0 MISS:          0
cpu0_L1I PREFETCH REQUESTED:          0 ISSUED:          0 USEFUL:          0 USELESS:          0
cpu0_L1I AVERAGE MISS LATENCY: 349.7 cycles
cpu0_L2C TOTAL        ACCESS:    3903788 HIT:    1376373 MISS:    2527415
cpu0_L2C LOAD         ACCESS:    2009351 HIT:      54909 MISS:    1954442
cpu0_L2C RFO          ACCESS:     573516 HIT:      11804 MISS:     561712
cpu0_L2C PREFETCH     ACCESS:          0 HIT:          0 MISS:          0
cpu0_L2C WRITE        ACCESS:     574680 HIT:     574662 MISS:         18
cpu0_L2C TRANSLATION  ACCESS:     746241 HIT:     734998 MISS:      11243
cpu0_L2C PREFETCH REQUESTED:          0 ISSUED:          0 USEFUL:          0 USELESS:          0
cpu0_L2C AVERAGE MISS LATENCY: 652.2 cycles
cpu0_STLB TOTAL        ACCESS:    1982675 HIT:     677180 MISS:    1305495
cpu0_STLB LOAD         ACCESS:    1982675 HIT:     677180 MISS:    1305495
cpu0_STLB RFO          ACCESS:          0 HIT:          0 MISS:          0
cpu0_STLB PREFETCH     ACCESS:          0 HIT:          0 MISS:          0
cpu0_STLB WRITE        ACCESS:          0 HIT:          0 MISS:          0
cpu0_STLB TRANSLATION  ACCESS:          0 HIT:          0 MISS:          0
cpu0_STLB PREFETCH REQUESTED:          0 ISSUED:          0 USEFUL:          0 USELESS:          0
cpu0_STLB AVERAGE MISS LATENCY: 14.57 cycles

DRAM Statistics

Channel 0 RQ ROW_BUFFER_HIT:     114572
  ROW_BUFFER_MISS:    2171346
 AVG DBUS CONGESTED CYCLE: 3.945
WQ ROW_BUFFER_HIT: Channel 0 
  ROW_BUFFER_MISS:     165113
  FULL:     370942
Final OPTGen Hits: 11682
Final OPTGen Access: 43849
Final OPTGEN Hit Rate: 26.6415
