WARNING: physical memory size is smaller than virtual memory size.

*** ChampSim Multicore Out-of-Order Simulator ***
Warmup Instructions: 50000000
Simulation Instructions: 600000000
Number of CPUs: 1
Page size: 4096

Off-chip DRAM Size: 4 GiB Channels: 1 Width: 64-bit Data Race: 3200 MT/s
Heartbeat CPU 0 instructions: 10000004 cycles: 2777663 heartbeat IPC: 3.6 cumulative IPC: 3.6 (Simulation time: 00 hr 00 min 24 sec)
Heartbeat CPU 0 instructions: 20000001 cycles: 5634805 heartbeat IPC: 3.5 cumulative IPC: 3.549 (Simulation time: 00 hr 00 min 52 sec)
Heartbeat CPU 0 instructions: 30000000 cycles: 8491948 heartbeat IPC: 3.5 cumulative IPC: 3.533 (Simulation time: 00 hr 01 min 22 sec)
Heartbeat CPU 0 instructions: 40000003 cycles: 11120601 heartbeat IPC: 3.804 cumulative IPC: 3.597 (Simulation time: 00 hr 01 min 54 sec)
Heartbeat CPU 0 instructions: 50000003 cycles: 13620601 heartbeat IPC: 4 cumulative IPC: 3.671 (Simulation time: 00 hr 02 min 29 sec)
Warmup finished CPU 0 instructions: 50000003 cycles: 13620602 cumulative IPC: 3.671 (Simulation time: 00 hr 02 min 29 sec)
Warmup complete CPU 0 instructions: 50000003 cycles: 13620602 cumulative IPC: 3.671 (Simulation time: 00 hr 02 min 29 sec)
Heartbeat CPU 0 instructions: 60000002 cycles: 16347845 heartbeat IPC: 3.667 cumulative IPC: 3.667 (Simulation time: 00 hr 03 min 10 sec)
Heartbeat CPU 0 instructions: 70000001 cycles: 19075145 heartbeat IPC: 3.667 cumulative IPC: 3.667 (Simulation time: 00 hr 03 min 56 sec)
Heartbeat CPU 0 instructions: 80000001 cycles: 21802387 heartbeat IPC: 3.667 cumulative IPC: 3.667 (Simulation time: 00 hr 04 min 43 sec)
Heartbeat CPU 0 instructions: 90000000 cycles: 24530053 heartbeat IPC: 3.666 cumulative IPC: 3.667 (Simulation time: 00 hr 05 min 33 sec)
Heartbeat CPU 0 instructions: 100000003 cycles: 27257296 heartbeat IPC: 3.667 cumulative IPC: 3.667 (Simulation time: 00 hr 06 min 29 sec)
Heartbeat CPU 0 instructions: 110000004 cycles: 29984599 heartbeat IPC: 3.667 cumulative IPC: 3.667 (Simulation time: 00 hr 07 min 32 sec)
Heartbeat CPU 0 instructions: 120000003 cycles: 32711869 heartbeat IPC: 3.667 cumulative IPC: 3.667 (Simulation time: 00 hr 08 min 36 sec)
Heartbeat CPU 0 instructions: 130000003 cycles: 35439142 heartbeat IPC: 3.667 cumulative IPC: 3.667 (Simulation time: 00 hr 09 min 40 sec)
Heartbeat CPU 0 instructions: 140000002 cycles: 38167779 heartbeat IPC: 3.665 cumulative IPC: 3.666 (Simulation time: 00 hr 10 min 44 sec)
Heartbeat CPU 0 instructions: 150000000 cycles: 40895022 heartbeat IPC: 3.667 cumulative IPC: 3.666 (Simulation time: 00 hr 11 min 44 sec)
Heartbeat CPU 0 instructions: 160000001 cycles: 43622326 heartbeat IPC: 3.667 cumulative IPC: 3.666 (Simulation time: 00 hr 12 min 42 sec)
Heartbeat CPU 0 instructions: 170000004 cycles: 46349567 heartbeat IPC: 3.667 cumulative IPC: 3.666 (Simulation time: 00 hr 13 min 38 sec)
Heartbeat CPU 0 instructions: 180000000 cycles: 49077994 heartbeat IPC: 3.665 cumulative IPC: 3.666 (Simulation time: 00 hr 14 min 35 sec)
Heartbeat CPU 0 instructions: 190000004 cycles: 51805280 heartbeat IPC: 3.667 cumulative IPC: 3.666 (Simulation time: 00 hr 15 min 32 sec)
Heartbeat CPU 0 instructions: 200000002 cycles: 54532538 heartbeat IPC: 3.667 cumulative IPC: 3.666 (Simulation time: 00 hr 16 min 29 sec)
Heartbeat CPU 0 instructions: 210000003 cycles: 57259841 heartbeat IPC: 3.667 cumulative IPC: 3.666 (Simulation time: 00 hr 17 min 27 sec)
Heartbeat CPU 0 instructions: 220000001 cycles: 59987083 heartbeat IPC: 3.667 cumulative IPC: 3.666 (Simulation time: 00 hr 18 min 24 sec)
Heartbeat CPU 0 instructions: 230000002 cycles: 62715222 heartbeat IPC: 3.666 cumulative IPC: 3.666 (Simulation time: 00 hr 19 min 22 sec)
Heartbeat CPU 0 instructions: 240000003 cycles: 65442464 heartbeat IPC: 3.667 cumulative IPC: 3.666 (Simulation time: 00 hr 20 min 20 sec)
Heartbeat CPU 0 instructions: 250000004 cycles: 68169767 heartbeat IPC: 3.667 cumulative IPC: 3.666 (Simulation time: 00 hr 21 min 18 sec)
Heartbeat CPU 0 instructions: 260000000 cycles: 70897050 heartbeat IPC: 3.667 cumulative IPC: 3.666 (Simulation time: 00 hr 22 min 20 sec)
Heartbeat CPU 0 instructions: 270000003 cycles: 73624950 heartbeat IPC: 3.666 cumulative IPC: 3.666 (Simulation time: 00 hr 23 min 19 sec)
Heartbeat CPU 0 instructions: 280000001 cycles: 76352251 heartbeat IPC: 3.667 cumulative IPC: 3.666 (Simulation time: 00 hr 24 min 19 sec)
Heartbeat CPU 0 instructions: 290000000 cycles: 79079492 heartbeat IPC: 3.667 cumulative IPC: 3.666 (Simulation time: 00 hr 25 min 23 sec)
Heartbeat CPU 0 instructions: 300000001 cycles: 81806795 heartbeat IPC: 3.667 cumulative IPC: 3.666 (Simulation time: 00 hr 26 min 24 sec)
Heartbeat CPU 0 instructions: 310000000 cycles: 84534037 heartbeat IPC: 3.667 cumulative IPC: 3.666 (Simulation time: 00 hr 27 min 25 sec)
Heartbeat CPU 0 instructions: 320000000 cycles: 87262177 heartbeat IPC: 3.666 cumulative IPC: 3.666 (Simulation time: 00 hr 28 min 24 sec)
Heartbeat CPU 0 instructions: 330000001 cycles: 89989473 heartbeat IPC: 3.667 cumulative IPC: 3.666 (Simulation time: 00 hr 29 min 26 sec)
Heartbeat CPU 0 instructions: 340000002 cycles: 92716720 heartbeat IPC: 3.667 cumulative IPC: 3.666 (Simulation time: 00 hr 30 min 28 sec)
Heartbeat CPU 0 instructions: 350000003 cycles: 95444023 heartbeat IPC: 3.667 cumulative IPC: 3.666 (Simulation time: 00 hr 31 min 24 sec)
Heartbeat CPU 0 instructions: 360000001 cycles: 98172061 heartbeat IPC: 3.666 cumulative IPC: 3.666 (Simulation time: 00 hr 32 min 22 sec)
Heartbeat CPU 0 instructions: 370000002 cycles: 100899365 heartbeat IPC: 3.667 cumulative IPC: 3.666 (Simulation time: 00 hr 33 min 18 sec)
Heartbeat CPU 0 instructions: 380000001 cycles: 103626619 heartbeat IPC: 3.667 cumulative IPC: 3.666 (Simulation time: 00 hr 34 min 17 sec)
Heartbeat CPU 0 instructions: 390000004 cycles: 106353908 heartbeat IPC: 3.667 cumulative IPC: 3.666 (Simulation time: 00 hr 35 min 14 sec)
Heartbeat CPU 0 instructions: 400000000 cycles: 109081208 heartbeat IPC: 3.667 cumulative IPC: 3.666 (Simulation time: 00 hr 36 min 13 sec)
Heartbeat CPU 0 instructions: 410000003 cycles: 111808945 heartbeat IPC: 3.666 cumulative IPC: 3.666 (Simulation time: 00 hr 37 min 13 sec)
Heartbeat CPU 0 instructions: 420000003 cycles: 124308641 heartbeat IPC: 0.8 cumulative IPC: 3.343 (Simulation time: 00 hr 40 min 09 sec)
Heartbeat CPU 0 instructions: 430000003 cycles: 153637365 heartbeat IPC: 0.341 cumulative IPC: 2.714 (Simulation time: 00 hr 46 min 22 sec)
Heartbeat CPU 0 instructions: 440000000 cycles: 181086114 heartbeat IPC: 0.3643 cumulative IPC: 2.329 (Simulation time: 00 hr 52 min 04 sec)
Heartbeat CPU 0 instructions: 450000000 cycles: 208582938 heartbeat IPC: 0.3637 cumulative IPC: 2.052 (Simulation time: 00 hr 57 min 48 sec)
Heartbeat CPU 0 instructions: 460000002 cycles: 236017041 heartbeat IPC: 0.3645 cumulative IPC: 1.844 (Simulation time: 01 hr 03 min 41 sec)
Heartbeat CPU 0 instructions: 470000003 cycles: 263501020 heartbeat IPC: 0.3638 cumulative IPC: 1.681 (Simulation time: 01 hr 13 min 10 sec)
Heartbeat CPU 0 instructions: 480000003 cycles: 290908505 heartbeat IPC: 0.3649 cumulative IPC: 1.551 (Simulation time: 01 hr 23 min 25 sec)
Heartbeat CPU 0 instructions: 490000000 cycles: 318336823 heartbeat IPC: 0.3646 cumulative IPC: 1.444 (Simulation time: 01 hr 32 min 43 sec)
Heartbeat CPU 0 instructions: 500000001 cycles: 345847128 heartbeat IPC: 0.3635 cumulative IPC: 1.354 (Simulation time: 01 hr 43 min 54 sec)
Heartbeat CPU 0 instructions: 510000002 cycles: 373270463 heartbeat IPC: 0.3647 cumulative IPC: 1.279 (Simulation time: 01 hr 55 min 32 sec)
Heartbeat CPU 0 instructions: 520000002 cycles: 400720032 heartbeat IPC: 0.3643 cumulative IPC: 1.214 (Simulation time: 02 hr 06 min 49 sec)
Heartbeat CPU 0 instructions: 530000004 cycles: 428032643 heartbeat IPC: 0.3661 cumulative IPC: 1.158 (Simulation time: 02 hr 16 min 59 sec)
Heartbeat CPU 0 instructions: 540000000 cycles: 455448379 heartbeat IPC: 0.3648 cumulative IPC: 1.109 (Simulation time: 02 hr 26 min 16 sec)
Heartbeat CPU 0 instructions: 550000001 cycles: 482868271 heartbeat IPC: 0.3647 cumulative IPC: 1.066 (Simulation time: 02 hr 32 min 15 sec)
Heartbeat CPU 0 instructions: 560000002 cycles: 510310956 heartbeat IPC: 0.3644 cumulative IPC: 1.027 (Simulation time: 02 hr 38 min 04 sec)
Heartbeat CPU 0 instructions: 570000002 cycles: 537875593 heartbeat IPC: 0.3628 cumulative IPC: 0.9919 (Simulation time: 02 hr 44 min 07 sec)
Heartbeat CPU 0 instructions: 580000000 cycles: 565356573 heartbeat IPC: 0.3639 cumulative IPC: 0.9606 (Simulation time: 02 hr 50 min 26 sec)
Heartbeat CPU 0 instructions: 590000004 cycles: 592868139 heartbeat IPC: 0.3635 cumulative IPC: 0.9322 (Simulation time: 02 hr 56 min 34 sec)
*** Reached end of trace: (0, "traces/l1l2l3cache.champsimtrace")
Heartbeat CPU 0 instructions: 600000001 cycles: 620300976 heartbeat IPC: 0.3645 cumulative IPC: 0.9066 (Simulation time: 03 hr 02 min 51 sec)
Heartbeat CPU 0 instructions: 610000000 cycles: 629448573 heartbeat IPC: 1.093 cumulative IPC: 0.9093 (Simulation time: 03 hr 05 min 41 sec)
Heartbeat CPU 0 instructions: 620000001 cycles: 644850233 heartbeat IPC: 0.6493 cumulative IPC: 0.903 (Simulation time: 03 hr 09 min 22 sec)
Heartbeat CPU 0 instructions: 630000000 cycles: 660291768 heartbeat IPC: 0.6476 cumulative IPC: 0.8969 (Simulation time: 03 hr 12 min 54 sec)
Heartbeat CPU 0 instructions: 640000000 cycles: 667592792 heartbeat IPC: 1.37 cumulative IPC: 0.9022 (Simulation time: 03 hr 14 min 52 sec)
Heartbeat CPU 0 instructions: 650000003 cycles: 670320439 heartbeat IPC: 3.666 cumulative IPC: 0.9137 (Simulation time: 03 hr 15 min 52 sec)
Simulation finished CPU 0 instructions: 600000000 cycles: 656699838 cumulative IPC: 0.9137 (Simulation time: 03 hr 15 min 52 sec)
Simulation complete CPU 0 instructions: 600000000 cycles: 656699838 cumulative IPC: 0.9137 (Simulation time: 03 hr 15 min 52 sec)

ChampSim completed all CPUs

=== Simulation ===
CPU 0 runs traces/l1l2l3cache.champsimtrace
Region of Interest Statistics

CPU 0 cumulative IPC: 0.9137 instructions: 600000000 cycles: 656699838
CPU 0 Branch Prediction Accuracy: 99.34% MPKI: 1.413 Average ROB Occupancy at Mispredict: 144.1
Branch type MPKI
BRANCH_DIRECT_JUMP: 8.5e-05
BRANCH_INDIRECT: 0.000237
BRANCH_CONDITIONAL: 1.41
BRANCH_DIRECT_CALL: 5e-06
BRANCH_INDIRECT_CALL: 4.67e-05
BRANCH_RETURN: 3.67e-05

LLC TOTAL        ACCESS:    5043920 HIT:     504689 MISS:    4539231
LLC LOAD         ACCESS:    1954446 HIT:     209617 MISS:    1744829
LLC RFO          ACCESS:     561710 HIT:      26426 MISS:     535284
LLC PREFETCH     ACCESS:    1954446 HIT:     206869 MISS:    1747577
LLC WRITE        ACCESS:     562068 HIT:      61758 MISS:     500310
LLC TRANSLATION  ACCESS:      11250 HIT:         19 MISS:      11231
LLC PREFETCH REQUESTED:    1954446 ISSUED:    1954446 USEFUL:     116107 USELESS:    1630411
LLC AVERAGE MISS LATENCY: 899.8 cycles
cpu0_DTLB TOTAL        ACCESS:  131754806 HIT:  129739831 MISS:    2014975
cpu0_DTLB LOAD         ACCESS:  131754806 HIT:  129739831 MISS:    2014975
cpu0_DTLB RFO          ACCESS:          0 HIT:          0 MISS:          0
cpu0_DTLB PREFETCH     ACCESS:          0 HIT:          0 MISS:          0
cpu0_DTLB WRITE        ACCESS:          0 HIT:          0 MISS:          0
cpu0_DTLB TRANSLATION  ACCESS:          0 HIT:          0 MISS:          0
cpu0_DTLB PREFETCH REQUESTED:          0 ISSUED:          0 USEFUL:          0 USELESS:          0
cpu0_DTLB AVERAGE MISS LATENCY: 22.24 cycles
cpu0_ITLB TOTAL        ACCESS:       4994 HIT:       4773 MISS:        221
cpu0_ITLB LOAD         ACCESS:       4994 HIT:       4773 MISS:        221
cpu0_ITLB RFO          ACCESS:          0 HIT:          0 MISS:          0
cpu0_ITLB PREFETCH     ACCESS:          0 HIT:          0 MISS:          0
cpu0_ITLB WRITE        ACCESS:          0 HIT:          0 MISS:          0
cpu0_ITLB TRANSLATION  ACCESS:          0 HIT:          0 MISS:          0
cpu0_ITLB PREFETCH REQUESTED:          0 ISSUED:          0 USEFUL:          0 USELESS:          0
cpu0_ITLB AVERAGE MISS LATENCY: 268 cycles
cpu0_L1D TOTAL        ACCESS:  179463124 HIT:  168226636 MISS:   11236488
cpu0_L1D LOAD         ACCESS:   71103723 HIT:   69060122 MISS:    2043601
cpu0_L1D RFO          ACCESS:          0 HIT:          0 MISS:          0
cpu0_L1D PREFETCH     ACCESS:          0 HIT:          0 MISS:          0
cpu0_L1D WRITE        ACCESS:  107053903 HIT:   98607258 MISS:    8446645
cpu0_L1D TRANSLATION  ACCESS:    1305498 HIT:     559256 MISS:     746242
cpu0_L1D PREFETCH REQUESTED:          0 ISSUED:          0 USEFUL:          0 USELESS:          0
cpu0_L1D AVERAGE MISS LATENCY: 192 cycles
cpu0_L1I TOTAL        ACCESS:       5693 HIT:       3426 MISS:       2267
cpu0_L1I LOAD         ACCESS:       5693 HIT:       3426 MISS:       2267
cpu0_L1I RFO          ACCESS:          0 HIT:          0 MISS:          0
cpu0_L1I PREFETCH     ACCESS:          0 HIT:          0 MISS:          0
cpu0_L1I WRITE        ACCESS:          0 HIT:          0 MISS:          0
cpu0_L1I TRANSLATION  ACCESS:          0 HIT:          0 MISS:          0
cpu0_L1I PREFETCH REQUESTED:          0 ISSUED:          0 USEFUL:          0 USELESS:          0
cpu0_L1I AVERAGE MISS LATENCY: 286 cycles
cpu0_L2C TOTAL        ACCESS:    3903837 HIT:    1376412 MISS:    2527425
cpu0_L2C LOAD         ACCESS:    2009357 HIT:      54911 MISS:    1954446
cpu0_L2C RFO          ACCESS:     573586 HIT:      11876 MISS:     561710
cpu0_L2C PREFETCH     ACCESS:          0 HIT:          0 MISS:          0
cpu0_L2C WRITE        ACCESS:     574673 HIT:     574654 MISS:         19
cpu0_L2C TRANSLATION  ACCESS:     746221 HIT:     734971 MISS:      11250
cpu0_L2C PREFETCH REQUESTED:          0 ISSUED:          0 USEFUL:          0 USELESS:          0
cpu0_L2C AVERAGE MISS LATENCY: 876 cycles
cpu0_STLB TOTAL        ACCESS:    1982681 HIT:     677191 MISS:    1305490
cpu0_STLB LOAD         ACCESS:    1982681 HIT:     677191 MISS:    1305490
cpu0_STLB RFO          ACCESS:          0 HIT:          0 MISS:          0
cpu0_STLB PREFETCH     ACCESS:          0 HIT:          0 MISS:          0
cpu0_STLB WRITE        ACCESS:          0 HIT:          0 MISS:          0
cpu0_STLB TRANSLATION  ACCESS:          0 HIT:          0 MISS:          0
cpu0_STLB PREFETCH REQUESTED:          0 ISSUED:          0 USEFUL:          0 USELESS:          0
cpu0_STLB AVERAGE MISS LATENCY: 21.28 cycles

DRAM Statistics

Channel 0 RQ ROW_BUFFER_HIT:     120825
  ROW_BUFFER_MISS:    3913955
 AVG DBUS CONGESTED CYCLE: 3.972
WQ ROW_BUFFER_HIT: Channel 0 
  ROW_BUFFER_MISS:     166477
  FULL:     368738
Final OPTGen Hits: 15846
Final OPTGen Access: 43849
Final OPTGEN Hit Rate: 36.1377
