WARNING: physical memory size is smaller than virtual memory size.

*** ChampSim Multicore Out-of-Order Simulator ***
Warmup Instructions: 50000000
Simulation Instructions: 600000000
Number of CPUs: 1
Page size: 4096

Off-chip DRAM Size: 4 GiB Channels: 1 Width: 64-bit Data Race: 3200 MT/s
Heartbeat CPU 0 instructions: 10000004 cycles: 2777663 heartbeat IPC: 3.6 cumulative IPC: 3.6 (Simulation time: 00 hr 00 min 48 sec)
Heartbeat CPU 0 instructions: 20000001 cycles: 5634805 heartbeat IPC: 3.5 cumulative IPC: 3.549 (Simulation time: 00 hr 01 min 40 sec)
Heartbeat CPU 0 instructions: 30000000 cycles: 8491948 heartbeat IPC: 3.5 cumulative IPC: 3.533 (Simulation time: 00 hr 02 min 38 sec)
Heartbeat CPU 0 instructions: 40000003 cycles: 11120601 heartbeat IPC: 3.804 cumulative IPC: 3.597 (Simulation time: 00 hr 03 min 33 sec)
Heartbeat CPU 0 instructions: 50000003 cycles: 13620601 heartbeat IPC: 4 cumulative IPC: 3.671 (Simulation time: 00 hr 04 min 29 sec)
Warmup finished CPU 0 instructions: 50000003 cycles: 13620602 cumulative IPC: 3.671 (Simulation time: 00 hr 04 min 29 sec)
Warmup complete CPU 0 instructions: 50000003 cycles: 13620602 cumulative IPC: 3.671 (Simulation time: 00 hr 04 min 29 sec)
Heartbeat CPU 0 instructions: 60000002 cycles: 16347845 heartbeat IPC: 3.667 cumulative IPC: 3.667 (Simulation time: 00 hr 05 min 33 sec)
Heartbeat CPU 0 instructions: 70000001 cycles: 19075145 heartbeat IPC: 3.667 cumulative IPC: 3.667 (Simulation time: 00 hr 06 min 31 sec)
Heartbeat CPU 0 instructions: 80000001 cycles: 21802387 heartbeat IPC: 3.667 cumulative IPC: 3.667 (Simulation time: 00 hr 07 min 29 sec)
Heartbeat CPU 0 instructions: 90000000 cycles: 24530531 heartbeat IPC: 3.665 cumulative IPC: 3.666 (Simulation time: 00 hr 08 min 26 sec)
Heartbeat CPU 0 instructions: 100000003 cycles: 27257774 heartbeat IPC: 3.667 cumulative IPC: 3.666 (Simulation time: 00 hr 09 min 22 sec)
Heartbeat CPU 0 instructions: 110000004 cycles: 29985077 heartbeat IPC: 3.667 cumulative IPC: 3.666 (Simulation time: 00 hr 10 min 20 sec)
Heartbeat CPU 0 instructions: 120000003 cycles: 32712347 heartbeat IPC: 3.667 cumulative IPC: 3.667 (Simulation time: 00 hr 11 min 17 sec)
Heartbeat CPU 0 instructions: 130000003 cycles: 35439620 heartbeat IPC: 3.667 cumulative IPC: 3.667 (Simulation time: 00 hr 12 min 15 sec)
Heartbeat CPU 0 instructions: 140000002 cycles: 38167581 heartbeat IPC: 3.666 cumulative IPC: 3.666 (Simulation time: 00 hr 13 min 11 sec)
Heartbeat CPU 0 instructions: 150000000 cycles: 40894824 heartbeat IPC: 3.667 cumulative IPC: 3.666 (Simulation time: 00 hr 14 min 07 sec)
Heartbeat CPU 0 instructions: 160000001 cycles: 43622128 heartbeat IPC: 3.667 cumulative IPC: 3.666 (Simulation time: 00 hr 15 min 07 sec)
Heartbeat CPU 0 instructions: 170000004 cycles: 46349369 heartbeat IPC: 3.667 cumulative IPC: 3.666 (Simulation time: 00 hr 16 min 05 sec)
Heartbeat CPU 0 instructions: 180000000 cycles: 49077206 heartbeat IPC: 3.666 cumulative IPC: 3.666 (Simulation time: 00 hr 17 min 05 sec)
Heartbeat CPU 0 instructions: 190000004 cycles: 51804492 heartbeat IPC: 3.667 cumulative IPC: 3.666 (Simulation time: 00 hr 18 min 04 sec)
Heartbeat CPU 0 instructions: 200000002 cycles: 54531750 heartbeat IPC: 3.667 cumulative IPC: 3.666 (Simulation time: 00 hr 19 min 03 sec)
Heartbeat CPU 0 instructions: 210000003 cycles: 57259053 heartbeat IPC: 3.667 cumulative IPC: 3.666 (Simulation time: 00 hr 20 min 05 sec)
Heartbeat CPU 0 instructions: 220000001 cycles: 59986295 heartbeat IPC: 3.667 cumulative IPC: 3.667 (Simulation time: 00 hr 21 min 08 sec)
Heartbeat CPU 0 instructions: 230000002 cycles: 62714486 heartbeat IPC: 3.665 cumulative IPC: 3.666 (Simulation time: 00 hr 22 min 09 sec)
Heartbeat CPU 0 instructions: 240000003 cycles: 65441728 heartbeat IPC: 3.667 cumulative IPC: 3.666 (Simulation time: 00 hr 23 min 10 sec)
Heartbeat CPU 0 instructions: 250000004 cycles: 68169031 heartbeat IPC: 3.667 cumulative IPC: 3.666 (Simulation time: 00 hr 24 min 11 sec)
Heartbeat CPU 0 instructions: 260000000 cycles: 70896314 heartbeat IPC: 3.667 cumulative IPC: 3.666 (Simulation time: 00 hr 25 min 12 sec)
Heartbeat CPU 0 instructions: 270000003 cycles: 73624866 heartbeat IPC: 3.665 cumulative IPC: 3.666 (Simulation time: 00 hr 26 min 11 sec)
Heartbeat CPU 0 instructions: 280000001 cycles: 76352167 heartbeat IPC: 3.667 cumulative IPC: 3.666 (Simulation time: 00 hr 27 min 09 sec)
Heartbeat CPU 0 instructions: 290000000 cycles: 79079408 heartbeat IPC: 3.667 cumulative IPC: 3.666 (Simulation time: 00 hr 28 min 05 sec)
Heartbeat CPU 0 instructions: 300000001 cycles: 81806711 heartbeat IPC: 3.667 cumulative IPC: 3.666 (Simulation time: 00 hr 29 min 03 sec)
Heartbeat CPU 0 instructions: 310000000 cycles: 84533953 heartbeat IPC: 3.667 cumulative IPC: 3.666 (Simulation time: 00 hr 29 min 58 sec)
Heartbeat CPU 0 instructions: 320000000 cycles: 87262351 heartbeat IPC: 3.665 cumulative IPC: 3.666 (Simulation time: 00 hr 30 min 56 sec)
Heartbeat CPU 0 instructions: 330000001 cycles: 89989647 heartbeat IPC: 3.667 cumulative IPC: 3.666 (Simulation time: 00 hr 31 min 55 sec)
Heartbeat CPU 0 instructions: 340000002 cycles: 92716894 heartbeat IPC: 3.667 cumulative IPC: 3.666 (Simulation time: 00 hr 32 min 54 sec)
Heartbeat CPU 0 instructions: 350000003 cycles: 95444197 heartbeat IPC: 3.667 cumulative IPC: 3.666 (Simulation time: 00 hr 33 min 59 sec)
Heartbeat CPU 0 instructions: 360000001 cycles: 98171802 heartbeat IPC: 3.666 cumulative IPC: 3.666 (Simulation time: 00 hr 34 min 59 sec)
Heartbeat CPU 0 instructions: 370000002 cycles: 100899493 heartbeat IPC: 3.666 cumulative IPC: 3.666 (Simulation time: 00 hr 35 min 59 sec)
Heartbeat CPU 0 instructions: 380000001 cycles: 103626747 heartbeat IPC: 3.667 cumulative IPC: 3.666 (Simulation time: 00 hr 36 min 58 sec)
Heartbeat CPU 0 instructions: 390000004 cycles: 106354036 heartbeat IPC: 3.667 cumulative IPC: 3.666 (Simulation time: 00 hr 38 min 00 sec)
Heartbeat CPU 0 instructions: 400000000 cycles: 109081336 heartbeat IPC: 3.667 cumulative IPC: 3.666 (Simulation time: 00 hr 39 min 00 sec)
Heartbeat CPU 0 instructions: 410000003 cycles: 111809216 heartbeat IPC: 3.666 cumulative IPC: 3.666 (Simulation time: 00 hr 39 min 58 sec)
Heartbeat CPU 0 instructions: 420000003 cycles: 120588618 heartbeat IPC: 1.139 cumulative IPC: 3.459 (Simulation time: 00 hr 42 min 10 sec)
Heartbeat CPU 0 instructions: 430000002 cycles: 148430508 heartbeat IPC: 0.3592 cumulative IPC: 2.819 (Simulation time: 00 hr 48 min 03 sec)
Heartbeat CPU 0 instructions: 440000004 cycles: 176305821 heartbeat IPC: 0.3587 cumulative IPC: 2.397 (Simulation time: 00 hr 53 min 50 sec)
Heartbeat CPU 0 instructions: 450000000 cycles: 204280012 heartbeat IPC: 0.3575 cumulative IPC: 2.098 (Simulation time: 00 hr 59 min 53 sec)
Heartbeat CPU 0 instructions: 460000002 cycles: 232136526 heartbeat IPC: 0.359 cumulative IPC: 1.876 (Simulation time: 01 hr 10 min 18 sec)
Heartbeat CPU 0 instructions: 470000003 cycles: 260056459 heartbeat IPC: 0.3582 cumulative IPC: 1.704 (Simulation time: 01 hr 20 min 55 sec)
Heartbeat CPU 0 instructions: 480000004 cycles: 287828377 heartbeat IPC: 0.3601 cumulative IPC: 1.568 (Simulation time: 01 hr 29 min 39 sec)
Heartbeat CPU 0 instructions: 490000000 cycles: 315742328 heartbeat IPC: 0.3582 cumulative IPC: 1.456 (Simulation time: 01 hr 41 min 49 sec)
Heartbeat CPU 0 instructions: 500000001 cycles: 343685808 heartbeat IPC: 0.3579 cumulative IPC: 1.363 (Simulation time: 01 hr 53 min 01 sec)
Heartbeat CPU 0 instructions: 510000002 cycles: 371563160 heartbeat IPC: 0.3587 cumulative IPC: 1.285 (Simulation time: 02 hr 03 min 32 sec)
Heartbeat CPU 0 instructions: 520000003 cycles: 399503124 heartbeat IPC: 0.3579 cumulative IPC: 1.218 (Simulation time: 02 hr 15 min 13 sec)
Heartbeat CPU 0 instructions: 530000004 cycles: 427228389 heartbeat IPC: 0.3607 cumulative IPC: 1.161 (Simulation time: 02 hr 23 min 12 sec)
Heartbeat CPU 0 instructions: 540000004 cycles: 455076919 heartbeat IPC: 0.3591 cumulative IPC: 1.11 (Simulation time: 02 hr 29 min 16 sec)
Heartbeat CPU 0 instructions: 550000000 cycles: 482926120 heartbeat IPC: 0.3591 cumulative IPC: 1.065 (Simulation time: 02 hr 35 min 18 sec)
Heartbeat CPU 0 instructions: 560000002 cycles: 510730309 heartbeat IPC: 0.3597 cumulative IPC: 1.026 (Simulation time: 02 hr 41 min 42 sec)
Heartbeat CPU 0 instructions: 570000002 cycles: 538665847 heartbeat IPC: 0.358 cumulative IPC: 0.9904 (Simulation time: 02 hr 48 min 01 sec)
Heartbeat CPU 0 instructions: 580000004 cycles: 566580598 heartbeat IPC: 0.3582 cumulative IPC: 0.9585 (Simulation time: 02 hr 54 min 12 sec)
Heartbeat CPU 0 instructions: 590000000 cycles: 594455675 heartbeat IPC: 0.3587 cumulative IPC: 0.9297 (Simulation time: 03 hr 01 min 25 sec)
*** Reached end of trace: (0, "traces/l1l2l3cache.champsimtrace")
Heartbeat CPU 0 instructions: 600000000 cycles: 622320635 heartbeat IPC: 0.3589 cumulative IPC: 0.9036 (Simulation time: 03 hr 07 min 35 sec)
Heartbeat CPU 0 instructions: 610000004 cycles: 631321652 heartbeat IPC: 1.111 cumulative IPC: 0.9066 (Simulation time: 03 hr 09 min 53 sec)
Heartbeat CPU 0 instructions: 620000001 cycles: 646813980 heartbeat IPC: 0.6455 cumulative IPC: 0.9002 (Simulation time: 03 hr 13 min 29 sec)
Heartbeat CPU 0 instructions: 630000000 cycles: 661851920 heartbeat IPC: 0.665 cumulative IPC: 0.8947 (Simulation time: 03 hr 16 min 55 sec)
Heartbeat CPU 0 instructions: 640000000 cycles: 669172012 heartbeat IPC: 1.366 cumulative IPC: 0.9 (Simulation time: 03 hr 18 min 51 sec)
Heartbeat CPU 0 instructions: 650000003 cycles: 671899284 heartbeat IPC: 3.667 cumulative IPC: 0.9115 (Simulation time: 03 hr 20 min 08 sec)
Simulation finished CPU 0 instructions: 600000000 cycles: 658278683 cumulative IPC: 0.9115 (Simulation time: 03 hr 20 min 08 sec)
Simulation complete CPU 0 instructions: 600000000 cycles: 658278683 cumulative IPC: 0.9115 (Simulation time: 03 hr 20 min 08 sec)

ChampSim completed all CPUs

=== Simulation ===
CPU 0 runs traces/l1l2l3cache.champsimtrace
Region of Interest Statistics

CPU 0 cumulative IPC: 0.9115 instructions: 600000000 cycles: 658278683
CPU 0 Branch Prediction Accuracy: 99.34% MPKI: 1.413 Average ROB Occupancy at Mispredict: 144.5
Branch type MPKI
BRANCH_DIRECT_JUMP: 8.5e-05
BRANCH_INDIRECT: 0.000237
BRANCH_CONDITIONAL: 1.41
BRANCH_DIRECT_CALL: 5e-06
BRANCH_INDIRECT_CALL: 4.67e-05
BRANCH_RETURN: 3.67e-05

LLC TOTAL        ACCESS:    5043913 HIT:     393664 MISS:    4650249
LLC LOAD         ACCESS:    1954445 HIT:     154405 MISS:    1800040
LLC RFO          ACCESS:     561711 HIT:      40837 MISS:     520874
LLC PREFETCH     ACCESS:    1954445 HIT:     154282 MISS:    1800163
LLC WRITE        ACCESS:     562066 HIT:      43820 MISS:     518246
LLC TRANSLATION  ACCESS:      11246 HIT:        320 MISS:      10926
LLC PREFETCH REQUESTED:    1954445 ISSUED:    1954445 USEFUL:       7800 USELESS:    1791959
LLC AVERAGE MISS LATENCY: 906.7 cycles
cpu0_DTLB TOTAL        ACCESS:  131698356 HIT:  129683432 MISS:    2014924
cpu0_DTLB LOAD         ACCESS:  131698356 HIT:  129683432 MISS:    2014924
cpu0_DTLB RFO          ACCESS:          0 HIT:          0 MISS:          0
cpu0_DTLB PREFETCH     ACCESS:          0 HIT:          0 MISS:          0
cpu0_DTLB WRITE        ACCESS:          0 HIT:          0 MISS:          0
cpu0_DTLB TRANSLATION  ACCESS:          0 HIT:          0 MISS:          0
cpu0_DTLB PREFETCH REQUESTED:          0 ISSUED:          0 USEFUL:          0 USELESS:          0
cpu0_DTLB AVERAGE MISS LATENCY: 22 cycles
cpu0_ITLB TOTAL        ACCESS:       4971 HIT:       4748 MISS:        223
cpu0_ITLB LOAD         ACCESS:       4971 HIT:       4748 MISS:        223
cpu0_ITLB RFO          ACCESS:          0 HIT:          0 MISS:          0
cpu0_ITLB PREFETCH     ACCESS:          0 HIT:          0 MISS:          0
cpu0_ITLB WRITE        ACCESS:          0 HIT:          0 MISS:          0
cpu0_ITLB TRANSLATION  ACCESS:          0 HIT:          0 MISS:          0
cpu0_ITLB PREFETCH REQUESTED:          0 ISSUED:          0 USEFUL:          0 USELESS:          0
cpu0_ITLB AVERAGE MISS LATENCY: 67.84 cycles
cpu0_L1D TOTAL        ACCESS:  179441292 HIT:  168156361 MISS:   11284931
cpu0_L1D LOAD         ACCESS:   71121582 HIT:   69082515 MISS:    2039067
cpu0_L1D RFO          ACCESS:          0 HIT:          0 MISS:          0
cpu0_L1D PREFETCH     ACCESS:          0 HIT:          0 MISS:          0
cpu0_L1D WRITE        ACCESS:  107014217 HIT:   98514618 MISS:    8499599
cpu0_L1D TRANSLATION  ACCESS:    1305493 HIT:     559228 MISS:     746265
cpu0_L1D PREFETCH REQUESTED:          0 ISSUED:          0 USEFUL:          0 USELESS:          0
cpu0_L1D AVERAGE MISS LATENCY: 196.6 cycles
cpu0_L1I TOTAL        ACCESS:       5672 HIT:       3433 MISS:       2239
cpu0_L1I LOAD         ACCESS:       5672 HIT:       3433 MISS:       2239
cpu0_L1I RFO          ACCESS:          0 HIT:          0 MISS:          0
cpu0_L1I PREFETCH     ACCESS:          0 HIT:          0 MISS:          0
cpu0_L1I WRITE        ACCESS:          0 HIT:          0 MISS:          0
cpu0_L1I TRANSLATION  ACCESS:          0 HIT:          0 MISS:          0
cpu0_L1I PREFETCH REQUESTED:          0 ISSUED:          0 USEFUL:          0 USELESS:          0
cpu0_L1I AVERAGE MISS LATENCY: 105.4 cycles
cpu0_L2C TOTAL        ACCESS:    3903922 HIT:    1376502 MISS:    2527420
cpu0_L2C LOAD         ACCESS:    2009352 HIT:      54907 MISS:    1954445
cpu0_L2C RFO          ACCESS:     573641 HIT:      11930 MISS:     561711
cpu0_L2C PREFETCH     ACCESS:          0 HIT:          0 MISS:          0
cpu0_L2C WRITE        ACCESS:     574686 HIT:     574668 MISS:         18
cpu0_L2C TRANSLATION  ACCESS:     746243 HIT:     734997 MISS:      11246
cpu0_L2C PREFETCH REQUESTED:          0 ISSUED:          0 USEFUL:          0 USELESS:          0
cpu0_L2C AVERAGE MISS LATENCY: 900.8 cycles
cpu0_STLB TOTAL        ACCESS:    1982675 HIT:     677190 MISS:    1305485
cpu0_STLB LOAD         ACCESS:    1982675 HIT:     677190 MISS:    1305485
cpu0_STLB RFO          ACCESS:          0 HIT:          0 MISS:          0
cpu0_STLB PREFETCH     ACCESS:          0 HIT:          0 MISS:          0
cpu0_STLB WRITE        ACCESS:          0 HIT:          0 MISS:          0
cpu0_STLB TRANSLATION  ACCESS:          0 HIT:          0 MISS:          0
cpu0_STLB PREFETCH REQUESTED:          0 ISSUED:          0 USEFUL:          0 USELESS:          0
cpu0_STLB AVERAGE MISS LATENCY: 20.87 cycles

DRAM Statistics

Channel 0 RQ ROW_BUFFER_HIT:      95812
  ROW_BUFFER_MISS:    4034843
 AVG DBUS CONGESTED CYCLE: 3.972
WQ ROW_BUFFER_HIT: Channel 0 
  ROW_BUFFER_MISS:     178907
  FULL:     342046
