WARNING: physical memory size is smaller than virtual memory size.

*** ChampSim Multicore Out-of-Order Simulator ***
Warmup Instructions: 50000000
Simulation Instructions: 600000000
Number of CPUs: 1
Page size: 4096

Off-chip DRAM Size: 4 GiB Channels: 1 Width: 64-bit Data Race: 3200 MT/s
Heartbeat CPU 0 instructions: 10000000 cycles: 2565785 heartbeat IPC: 3.897 cumulative IPC: 3.897 (Simulation time: 00 hr 00 min 50 sec)
Heartbeat CPU 0 instructions: 20000000 cycles: 5131274 heartbeat IPC: 3.898 cumulative IPC: 3.898 (Simulation time: 00 hr 01 min 44 sec)
Heartbeat CPU 0 instructions: 30000000 cycles: 7631274 heartbeat IPC: 4 cumulative IPC: 3.931 (Simulation time: 00 hr 02 min 26 sec)
Heartbeat CPU 0 instructions: 40000000 cycles: 10131274 heartbeat IPC: 4 cumulative IPC: 3.948 (Simulation time: 00 hr 03 min 12 sec)
Heartbeat CPU 0 instructions: 50000000 cycles: 12631274 heartbeat IPC: 4 cumulative IPC: 3.958 (Simulation time: 00 hr 04 min 00 sec)
Warmup finished CPU 0 instructions: 50000000 cycles: 12631275 cumulative IPC: 3.958 (Simulation time: 00 hr 04 min 00 sec)
Warmup complete CPU 0 instructions: 50000000 cycles: 12631275 cumulative IPC: 3.958 (Simulation time: 00 hr 04 min 00 sec)
Heartbeat CPU 0 instructions: 60000000 cycles: 16058852 heartbeat IPC: 2.918 cumulative IPC: 2.918 (Simulation time: 00 hr 04 min 58 sec)
Heartbeat CPU 0 instructions: 70000000 cycles: 19488286 heartbeat IPC: 2.916 cumulative IPC: 2.917 (Simulation time: 00 hr 05 min 53 sec)
Heartbeat CPU 0 instructions: 80000004 cycles: 22914704 heartbeat IPC: 2.919 cumulative IPC: 2.917 (Simulation time: 00 hr 06 min 45 sec)
Heartbeat CPU 0 instructions: 90000000 cycles: 26342392 heartbeat IPC: 2.917 cumulative IPC: 2.917 (Simulation time: 00 hr 07 min 45 sec)
Heartbeat CPU 0 instructions: 100000003 cycles: 29773619 heartbeat IPC: 2.914 cumulative IPC: 2.917 (Simulation time: 00 hr 08 min 42 sec)
Heartbeat CPU 0 instructions: 110000000 cycles: 33199684 heartbeat IPC: 2.919 cumulative IPC: 2.917 (Simulation time: 00 hr 09 min 39 sec)
Heartbeat CPU 0 instructions: 120000001 cycles: 36624207 heartbeat IPC: 2.92 cumulative IPC: 2.918 (Simulation time: 00 hr 10 min 31 sec)
Heartbeat CPU 0 instructions: 130000001 cycles: 40050788 heartbeat IPC: 2.918 cumulative IPC: 2.918 (Simulation time: 00 hr 11 min 32 sec)
Heartbeat CPU 0 instructions: 140000002 cycles: 43477136 heartbeat IPC: 2.919 cumulative IPC: 2.918 (Simulation time: 00 hr 12 min 32 sec)
Heartbeat CPU 0 instructions: 150000000 cycles: 46902215 heartbeat IPC: 2.92 cumulative IPC: 2.918 (Simulation time: 00 hr 13 min 31 sec)
Heartbeat CPU 0 instructions: 160000002 cycles: 50328722 heartbeat IPC: 2.918 cumulative IPC: 2.918 (Simulation time: 00 hr 14 min 30 sec)
Heartbeat CPU 0 instructions: 170000000 cycles: 53756209 heartbeat IPC: 2.918 cumulative IPC: 2.918 (Simulation time: 00 hr 15 min 29 sec)
Heartbeat CPU 0 instructions: 180000004 cycles: 57182235 heartbeat IPC: 2.919 cumulative IPC: 2.918 (Simulation time: 00 hr 16 min 25 sec)
Heartbeat CPU 0 instructions: 190000001 cycles: 60608942 heartbeat IPC: 2.918 cumulative IPC: 2.918 (Simulation time: 00 hr 17 min 22 sec)
Heartbeat CPU 0 instructions: 200000001 cycles: 64034698 heartbeat IPC: 2.919 cumulative IPC: 2.918 (Simulation time: 00 hr 18 min 16 sec)
Heartbeat CPU 0 instructions: 210000004 cycles: 67460593 heartbeat IPC: 2.919 cumulative IPC: 2.918 (Simulation time: 00 hr 19 min 11 sec)
Heartbeat CPU 0 instructions: 220000002 cycles: 70888099 heartbeat IPC: 2.918 cumulative IPC: 2.918 (Simulation time: 00 hr 20 min 05 sec)
Heartbeat CPU 0 instructions: 230000001 cycles: 74836389 heartbeat IPC: 2.533 cumulative IPC: 2.894 (Simulation time: 00 hr 21 min 13 sec)
Heartbeat CPU 0 instructions: 240000003 cycles: 82276806 heartbeat IPC: 1.344 cumulative IPC: 2.728 (Simulation time: 00 hr 22 min 57 sec)
Heartbeat CPU 0 instructions: 250000003 cycles: 85710481 heartbeat IPC: 2.912 cumulative IPC: 2.737 (Simulation time: 00 hr 23 min 52 sec)
Heartbeat CPU 0 instructions: 260000000 cycles: 89137219 heartbeat IPC: 2.918 cumulative IPC: 2.745 (Simulation time: 00 hr 24 min 46 sec)
Heartbeat CPU 0 instructions: 270000004 cycles: 92563214 heartbeat IPC: 2.919 cumulative IPC: 2.752 (Simulation time: 00 hr 25 min 41 sec)
Heartbeat CPU 0 instructions: 280000000 cycles: 95991041 heartbeat IPC: 2.917 cumulative IPC: 2.759 (Simulation time: 00 hr 26 min 40 sec)
Heartbeat CPU 0 instructions: 290000002 cycles: 99419176 heartbeat IPC: 2.917 cumulative IPC: 2.765 (Simulation time: 00 hr 27 min 37 sec)
Heartbeat CPU 0 instructions: 300000004 cycles: 102842742 heartbeat IPC: 2.921 cumulative IPC: 2.771 (Simulation time: 00 hr 28 min 31 sec)
Heartbeat CPU 0 instructions: 310000002 cycles: 106270865 heartbeat IPC: 2.917 cumulative IPC: 2.777 (Simulation time: 00 hr 29 min 19 sec)
Heartbeat CPU 0 instructions: 320000000 cycles: 109698675 heartbeat IPC: 2.917 cumulative IPC: 2.782 (Simulation time: 00 hr 30 min 00 sec)
Heartbeat CPU 0 instructions: 330000004 cycles: 113125424 heartbeat IPC: 2.918 cumulative IPC: 2.786 (Simulation time: 00 hr 30 min 42 sec)
Heartbeat CPU 0 instructions: 340000000 cycles: 116552681 heartbeat IPC: 2.918 cumulative IPC: 2.791 (Simulation time: 00 hr 32 min 00 sec)
Heartbeat CPU 0 instructions: 350000003 cycles: 119981602 heartbeat IPC: 2.916 cumulative IPC: 2.795 (Simulation time: 00 hr 33 min 20 sec)
Heartbeat CPU 0 instructions: 360000003 cycles: 123409250 heartbeat IPC: 2.917 cumulative IPC: 2.798 (Simulation time: 00 hr 34 min 28 sec)
Heartbeat CPU 0 instructions: 370000004 cycles: 126835642 heartbeat IPC: 2.919 cumulative IPC: 2.802 (Simulation time: 00 hr 35 min 07 sec)
Heartbeat CPU 0 instructions: 380000003 cycles: 130261176 heartbeat IPC: 2.919 cumulative IPC: 2.805 (Simulation time: 00 hr 35 min 45 sec)
Heartbeat CPU 0 instructions: 390000000 cycles: 133682155 heartbeat IPC: 2.923 cumulative IPC: 2.809 (Simulation time: 00 hr 36 min 24 sec)
Heartbeat CPU 0 instructions: 400000002 cycles: 137109535 heartbeat IPC: 2.918 cumulative IPC: 2.812 (Simulation time: 00 hr 37 min 02 sec)
Heartbeat CPU 0 instructions: 410000003 cycles: 140537031 heartbeat IPC: 2.918 cumulative IPC: 2.815 (Simulation time: 00 hr 37 min 43 sec)
Heartbeat CPU 0 instructions: 420000001 cycles: 143964859 heartbeat IPC: 2.917 cumulative IPC: 2.817 (Simulation time: 00 hr 38 min 22 sec)
Heartbeat CPU 0 instructions: 430000001 cycles: 147393609 heartbeat IPC: 2.917 cumulative IPC: 2.82 (Simulation time: 00 hr 39 min 03 sec)
Heartbeat CPU 0 instructions: 440000002 cycles: 150818169 heartbeat IPC: 2.92 cumulative IPC: 2.822 (Simulation time: 00 hr 39 min 43 sec)
Heartbeat CPU 0 instructions: 450000001 cycles: 154308792 heartbeat IPC: 2.865 cumulative IPC: 2.823 (Simulation time: 00 hr 40 min 28 sec)
Heartbeat CPU 0 instructions: 460000002 cycles: 161077291 heartbeat IPC: 1.477 cumulative IPC: 2.762 (Simulation time: 00 hr 41 min 40 sec)
Heartbeat CPU 0 instructions: 470000004 cycles: 164500601 heartbeat IPC: 2.921 cumulative IPC: 2.766 (Simulation time: 00 hr 42 min 19 sec)
Heartbeat CPU 0 instructions: 480000000 cycles: 167928828 heartbeat IPC: 2.917 cumulative IPC: 2.769 (Simulation time: 00 hr 42 min 58 sec)
Heartbeat CPU 0 instructions: 490000000 cycles: 171354203 heartbeat IPC: 2.919 cumulative IPC: 2.772 (Simulation time: 00 hr 43 min 37 sec)
Heartbeat CPU 0 instructions: 500000002 cycles: 174780965 heartbeat IPC: 2.918 cumulative IPC: 2.775 (Simulation time: 00 hr 44 min 16 sec)
Heartbeat CPU 0 instructions: 510000001 cycles: 178209898 heartbeat IPC: 2.916 cumulative IPC: 2.778 (Simulation time: 00 hr 44 min 55 sec)
Heartbeat CPU 0 instructions: 520000003 cycles: 181635229 heartbeat IPC: 2.919 cumulative IPC: 2.781 (Simulation time: 00 hr 45 min 33 sec)
Heartbeat CPU 0 instructions: 530000002 cycles: 185059099 heartbeat IPC: 2.921 cumulative IPC: 2.784 (Simulation time: 00 hr 46 min 12 sec)
Heartbeat CPU 0 instructions: 540000000 cycles: 188487798 heartbeat IPC: 2.917 cumulative IPC: 2.786 (Simulation time: 00 hr 46 min 51 sec)
Heartbeat CPU 0 instructions: 550000000 cycles: 191914039 heartbeat IPC: 2.919 cumulative IPC: 2.789 (Simulation time: 00 hr 47 min 31 sec)
Heartbeat CPU 0 instructions: 560000001 cycles: 195338788 heartbeat IPC: 2.92 cumulative IPC: 2.791 (Simulation time: 00 hr 48 min 09 sec)
Heartbeat CPU 0 instructions: 570000001 cycles: 198764270 heartbeat IPC: 2.919 cumulative IPC: 2.794 (Simulation time: 00 hr 48 min 48 sec)
Heartbeat CPU 0 instructions: 580000000 cycles: 202194059 heartbeat IPC: 2.916 cumulative IPC: 2.796 (Simulation time: 00 hr 49 min 27 sec)
Heartbeat CPU 0 instructions: 590000003 cycles: 205620444 heartbeat IPC: 2.919 cumulative IPC: 2.798 (Simulation time: 00 hr 50 min 05 sec)
*** Reached end of trace: (0, "traces/l1l2cache.champsimtrace")
Heartbeat CPU 0 instructions: 600000001 cycles: 209048580 heartbeat IPC: 2.917 cumulative IPC: 2.8 (Simulation time: 00 hr 50 min 45 sec)
Heartbeat CPU 0 instructions: 610000000 cycles: 212469731 heartbeat IPC: 2.923 cumulative IPC: 2.802 (Simulation time: 00 hr 51 min 28 sec)
Heartbeat CPU 0 instructions: 620000004 cycles: 215208572 heartbeat IPC: 3.651 cumulative IPC: 2.814 (Simulation time: 00 hr 52 min 10 sec)
Heartbeat CPU 0 instructions: 630000004 cycles: 218631648 heartbeat IPC: 2.921 cumulative IPC: 2.816 (Simulation time: 00 hr 52 min 49 sec)
Heartbeat CPU 0 instructions: 640000000 cycles: 222056576 heartbeat IPC: 2.92 cumulative IPC: 2.817 (Simulation time: 00 hr 53 min 27 sec)
Heartbeat CPU 0 instructions: 650000004 cycles: 225485980 heartbeat IPC: 2.916 cumulative IPC: 2.819 (Simulation time: 00 hr 54 min 09 sec)
Simulation finished CPU 0 instructions: 600000004 cycles: 212854706 cumulative IPC: 2.819 (Simulation time: 00 hr 54 min 09 sec)
Simulation complete CPU 0 instructions: 600000004 cycles: 212854706 cumulative IPC: 2.819 (Simulation time: 00 hr 54 min 09 sec)

ChampSim completed all CPUs

=== Simulation ===
CPU 0 runs traces/l1l2cache.champsimtrace
Region of Interest Statistics

CPU 0 cumulative IPC: 2.819 instructions: 600000004 cycles: 212854706
CPU 0 Branch Prediction Accuracy: 93.04% MPKI: 5.913 Average ROB Occupancy at Mispredict: 67.85
Branch type MPKI
BRANCH_DIRECT_JUMP: 9.5e-05
BRANCH_INDIRECT: 0.000282
BRANCH_CONDITIONAL: 5.91
BRANCH_DIRECT_CALL: 3.33e-06
BRANCH_INDIRECT_CALL: 4.83e-05
BRANCH_RETURN: 3.33e-05

LLC TOTAL        ACCESS:     319112 HIT:     161031 MISS:     158081
LLC LOAD         ACCESS:      59445 HIT:      36768 MISS:      22677
LLC RFO          ACCESS:      99913 HIT:      46271 MISS:      53642
LLC PREFETCH     ACCESS:      59445 HIT:      30130 MISS:      29315
LLC WRITE        ACCESS:     100304 HIT:      47861 MISS:      52443
LLC TRANSLATION  ACCESS:          5 HIT:          1 MISS:          4
LLC PREFETCH REQUESTED:      59445 ISSUED:      59445 USEFUL:      26825 USELESS:       1823
LLC AVERAGE MISS LATENCY: 353.2 cycles
cpu0_DTLB TOTAL        ACCESS:   82311236 HIT:   82300469 MISS:      10767
cpu0_DTLB LOAD         ACCESS:   82311236 HIT:   82300469 MISS:      10767
cpu0_DTLB RFO          ACCESS:          0 HIT:          0 MISS:          0
cpu0_DTLB PREFETCH     ACCESS:          0 HIT:          0 MISS:          0
cpu0_DTLB WRITE        ACCESS:          0 HIT:          0 MISS:          0
cpu0_DTLB TRANSLATION  ACCESS:          0 HIT:          0 MISS:          0
cpu0_DTLB PREFETCH REQUESTED:          0 ISSUED:          0 USEFUL:          0 USELESS:          0
cpu0_DTLB AVERAGE MISS LATENCY: 5.887 cycles
cpu0_ITLB TOTAL        ACCESS:       5556 HIT:       5339 MISS:        217
cpu0_ITLB LOAD         ACCESS:       5556 HIT:       5339 MISS:        217
cpu0_ITLB RFO          ACCESS:          0 HIT:          0 MISS:          0
cpu0_ITLB PREFETCH     ACCESS:          0 HIT:          0 MISS:          0
cpu0_ITLB WRITE        ACCESS:          0 HIT:          0 MISS:          0
cpu0_ITLB TRANSLATION  ACCESS:          0 HIT:          0 MISS:          0
cpu0_ITLB PREFETCH REQUESTED:          0 ISSUED:          0 USEFUL:          0 USELESS:          0
cpu0_ITLB AVERAGE MISS LATENCY: 6.502 cycles
cpu0_L1D TOTAL        ACCESS:  104545535 HIT:  102745424 MISS:    1800111
cpu0_L1D LOAD         ACCESS:   45383412 HIT:   44914968 MISS:     468444
cpu0_L1D RFO          ACCESS:          0 HIT:          0 MISS:          0
cpu0_L1D PREFETCH     ACCESS:          0 HIT:          0 MISS:          0
cpu0_L1D WRITE        ACCESS:   59161865 HIT:   57830203 MISS:    1331662
cpu0_L1D TRANSLATION  ACCESS:        258 HIT:        253 MISS:          5
cpu0_L1D PREFETCH REQUESTED:          0 ISSUED:          0 USEFUL:          0 USELESS:          0
cpu0_L1D AVERAGE MISS LATENCY: 26.73 cycles
cpu0_L1I TOTAL        ACCESS:       6316 HIT:       4069 MISS:       2247
cpu0_L1I LOAD         ACCESS:       6316 HIT:       4069 MISS:       2247
cpu0_L1I RFO          ACCESS:          0 HIT:          0 MISS:          0
cpu0_L1I PREFETCH     ACCESS:          0 HIT:          0 MISS:          0
cpu0_L1I WRITE        ACCESS:          0 HIT:          0 MISS:          0
cpu0_L1I TRANSLATION  ACCESS:          0 HIT:          0 MISS:          0
cpu0_L1I PREFETCH REQUESTED:          0 ISSUED:          0 USEFUL:          0 USELESS:          0
cpu0_L1I AVERAGE MISS LATENCY: 183.3 cycles
cpu0_L2C TOTAL        ACCESS:     265761 HIT:     106378 MISS:     159383
cpu0_L2C LOAD         ACCESS:      63735 HIT:       4290 MISS:      59445
cpu0_L2C RFO          ACCESS:     100754 HIT:        841 MISS:      99913
cpu0_L2C PREFETCH     ACCESS:          0 HIT:          0 MISS:          0
cpu0_L2C WRITE        ACCESS:     101267 HIT:     101247 MISS:         20
cpu0_L2C TRANSLATION  ACCESS:          5 HIT:          0 MISS:          5
cpu0_L2C PREFETCH REQUESTED:          0 ISSUED:          0 USEFUL:          0 USELESS:          0
cpu0_L2C AVERAGE MISS LATENCY: 337.7 cycles
cpu0_STLB TOTAL        ACCESS:       3914 HIT:       3657 MISS:        257
cpu0_STLB LOAD         ACCESS:       3914 HIT:       3657 MISS:        257
cpu0_STLB RFO          ACCESS:          0 HIT:          0 MISS:          0
cpu0_STLB PREFETCH     ACCESS:          0 HIT:          0 MISS:          0
cpu0_STLB WRITE        ACCESS:          0 HIT:          0 MISS:          0
cpu0_STLB TRANSLATION  ACCESS:          0 HIT:          0 MISS:          0
cpu0_STLB PREFETCH REQUESTED:          0 ISSUED:          0 USEFUL:          0 USELESS:          0
cpu0_STLB AVERAGE MISS LATENCY: 216.2 cycles

DRAM Statistics

Channel 0 RQ ROW_BUFFER_HIT:      37731
  ROW_BUFFER_MISS:      46519
 AVG DBUS CONGESTED CYCLE: 3.965
WQ ROW_BUFFER_HIT: Channel 0 
  ROW_BUFFER_MISS:      15308
  FULL:      36992
