WARNING: physical memory size is smaller than virtual memory size.

*** ChampSim Multicore Out-of-Order Simulator ***
Warmup Instructions: 50000000
Simulation Instructions: 600000000
Number of CPUs: 1
Page size: 4096

CPU 0 Tage branch predictor
Off-chip DRAM Size: 4 GiB Channels: 1 Width: 64-bit Data Race: 3200 MT/s
Heartbeat CPU 0 instructions: 10000004 cycles: 2777663 heartbeat IPC: 3.6 cumulative IPC: 3.6 (Simulation time: 00 hr 00 min 40 sec)
Heartbeat CPU 0 instructions: 20000001 cycles: 5634805 heartbeat IPC: 3.5 cumulative IPC: 3.549 (Simulation time: 00 hr 01 min 24 sec)
Heartbeat CPU 0 instructions: 30000000 cycles: 8491948 heartbeat IPC: 3.5 cumulative IPC: 3.533 (Simulation time: 00 hr 02 min 13 sec)
Heartbeat CPU 0 instructions: 40000003 cycles: 11120601 heartbeat IPC: 3.804 cumulative IPC: 3.597 (Simulation time: 00 hr 03 min 05 sec)
Heartbeat CPU 0 instructions: 50000003 cycles: 13620601 heartbeat IPC: 4 cumulative IPC: 3.671 (Simulation time: 00 hr 03 min 57 sec)
Warmup finished CPU 0 instructions: 50000003 cycles: 13620602 cumulative IPC: 3.671 (Simulation time: 00 hr 03 min 57 sec)
Warmup complete CPU 0 instructions: 50000003 cycles: 13620602 cumulative IPC: 3.671 (Simulation time: 00 hr 03 min 57 sec)
Heartbeat CPU 0 instructions: 60000002 cycles: 16120603 heartbeat IPC: 4 cumulative IPC: 4 (Simulation time: 00 hr 05 min 06 sec)
Heartbeat CPU 0 instructions: 70000001 cycles: 18620602 heartbeat IPC: 4 cumulative IPC: 4 (Simulation time: 00 hr 06 min 23 sec)
Heartbeat CPU 0 instructions: 80000000 cycles: 21120601 heartbeat IPC: 4 cumulative IPC: 4 (Simulation time: 00 hr 07 min 45 sec)
Heartbeat CPU 0 instructions: 90000003 cycles: 23620910 heartbeat IPC: 4 cumulative IPC: 4 (Simulation time: 00 hr 09 min 05 sec)
Heartbeat CPU 0 instructions: 100000003 cycles: 26120911 heartbeat IPC: 4 cumulative IPC: 4 (Simulation time: 00 hr 10 min 19 sec)
Heartbeat CPU 0 instructions: 110000004 cycles: 28620912 heartbeat IPC: 4 cumulative IPC: 4 (Simulation time: 00 hr 11 min 30 sec)
Heartbeat CPU 0 instructions: 120000003 cycles: 31120911 heartbeat IPC: 4 cumulative IPC: 4 (Simulation time: 00 hr 12 min 38 sec)
Heartbeat CPU 0 instructions: 130000002 cycles: 33620910 heartbeat IPC: 4 cumulative IPC: 4 (Simulation time: 00 hr 13 min 48 sec)
Heartbeat CPU 0 instructions: 140000000 cycles: 36121069 heartbeat IPC: 4 cumulative IPC: 4 (Simulation time: 00 hr 14 min 54 sec)
Heartbeat CPU 0 instructions: 150000000 cycles: 38621070 heartbeat IPC: 4 cumulative IPC: 4 (Simulation time: 00 hr 16 min 02 sec)
Heartbeat CPU 0 instructions: 160000001 cycles: 41121071 heartbeat IPC: 4 cumulative IPC: 4 (Simulation time: 00 hr 17 min 07 sec)
Heartbeat CPU 0 instructions: 170000004 cycles: 43621071 heartbeat IPC: 4 cumulative IPC: 4 (Simulation time: 00 hr 18 min 16 sec)
Heartbeat CPU 0 instructions: 180000000 cycles: 46121087 heartbeat IPC: 4 cumulative IPC: 4 (Simulation time: 00 hr 19 min 27 sec)
Heartbeat CPU 0 instructions: 190000004 cycles: 48621088 heartbeat IPC: 4 cumulative IPC: 4 (Simulation time: 00 hr 20 min 40 sec)
Heartbeat CPU 0 instructions: 200000002 cycles: 51121088 heartbeat IPC: 4 cumulative IPC: 4 (Simulation time: 00 hr 21 min 52 sec)
Heartbeat CPU 0 instructions: 210000003 cycles: 53621089 heartbeat IPC: 4 cumulative IPC: 4 (Simulation time: 00 hr 23 min 04 sec)
Heartbeat CPU 0 instructions: 220000001 cycles: 56121088 heartbeat IPC: 4 cumulative IPC: 4 (Simulation time: 00 hr 24 min 21 sec)
Heartbeat CPU 0 instructions: 230000002 cycles: 58621396 heartbeat IPC: 4 cumulative IPC: 4 (Simulation time: 00 hr 25 min 35 sec)
Heartbeat CPU 0 instructions: 240000003 cycles: 61121396 heartbeat IPC: 4 cumulative IPC: 4 (Simulation time: 00 hr 26 min 49 sec)
Heartbeat CPU 0 instructions: 250000004 cycles: 63621397 heartbeat IPC: 4 cumulative IPC: 4 (Simulation time: 00 hr 28 min 03 sec)
Heartbeat CPU 0 instructions: 260000000 cycles: 66121397 heartbeat IPC: 4 cumulative IPC: 4 (Simulation time: 00 hr 29 min 15 sec)
Heartbeat CPU 0 instructions: 270000003 cycles: 68622747 heartbeat IPC: 3.998 cumulative IPC: 4 (Simulation time: 00 hr 30 min 24 sec)
Heartbeat CPU 0 instructions: 280000001 cycles: 71122746 heartbeat IPC: 4 cumulative IPC: 4 (Simulation time: 00 hr 31 min 33 sec)
Heartbeat CPU 0 instructions: 290000000 cycles: 73622746 heartbeat IPC: 4 cumulative IPC: 4 (Simulation time: 00 hr 32 min 43 sec)
Heartbeat CPU 0 instructions: 300000001 cycles: 76122747 heartbeat IPC: 4 cumulative IPC: 4 (Simulation time: 00 hr 33 min 56 sec)
Heartbeat CPU 0 instructions: 310000000 cycles: 78622747 heartbeat IPC: 4 cumulative IPC: 4 (Simulation time: 00 hr 35 min 05 sec)
Heartbeat CPU 0 instructions: 320000000 cycles: 81124693 heartbeat IPC: 3.997 cumulative IPC: 4 (Simulation time: 00 hr 36 min 17 sec)
Heartbeat CPU 0 instructions: 330000000 cycles: 83624691 heartbeat IPC: 4 cumulative IPC: 4 (Simulation time: 00 hr 37 min 34 sec)
Heartbeat CPU 0 instructions: 340000002 cycles: 86124692 heartbeat IPC: 4 cumulative IPC: 4 (Simulation time: 00 hr 38 min 46 sec)
Heartbeat CPU 0 instructions: 350000003 cycles: 88624693 heartbeat IPC: 4 cumulative IPC: 4 (Simulation time: 00 hr 39 min 55 sec)
Heartbeat CPU 0 instructions: 360000001 cycles: 91126850 heartbeat IPC: 3.997 cumulative IPC: 4 (Simulation time: 00 hr 41 min 09 sec)
Heartbeat CPU 0 instructions: 370000002 cycles: 93626851 heartbeat IPC: 4 cumulative IPC: 4 (Simulation time: 00 hr 42 min 22 sec)
Heartbeat CPU 0 instructions: 380000002 cycles: 96126850 heartbeat IPC: 4 cumulative IPC: 4 (Simulation time: 00 hr 43 min 32 sec)
Heartbeat CPU 0 instructions: 390000004 cycles: 98626851 heartbeat IPC: 4 cumulative IPC: 4 (Simulation time: 00 hr 44 min 45 sec)
Heartbeat CPU 0 instructions: 400000000 cycles: 101126851 heartbeat IPC: 4 cumulative IPC: 4 (Simulation time: 00 hr 45 min 58 sec)
Heartbeat CPU 0 instructions: 410000003 cycles: 103627220 heartbeat IPC: 3.999 cumulative IPC: 4 (Simulation time: 00 hr 47 min 08 sec)
Heartbeat CPU 0 instructions: 420000003 cycles: 113818581 heartbeat IPC: 0.9812 cumulative IPC: 3.693 (Simulation time: 00 hr 49 min 43 sec)
Heartbeat CPU 0 instructions: 430000003 cycles: 135968161 heartbeat IPC: 0.4515 cumulative IPC: 3.106 (Simulation time: 00 hr 54 min 38 sec)
Heartbeat CPU 0 instructions: 440000004 cycles: 154864039 heartbeat IPC: 0.5292 cumulative IPC: 2.761 (Simulation time: 00 hr 58 min 57 sec)
Heartbeat CPU 0 instructions: 450000000 cycles: 173544198 heartbeat IPC: 0.5353 cumulative IPC: 2.501 (Simulation time: 01 hr 03 min 31 sec)
Heartbeat CPU 0 instructions: 460000001 cycles: 192160060 heartbeat IPC: 0.5372 cumulative IPC: 2.296 (Simulation time: 01 hr 11 min 19 sec)
Heartbeat CPU 0 instructions: 470000003 cycles: 210779584 heartbeat IPC: 0.5371 cumulative IPC: 2.13 (Simulation time: 01 hr 18 min 45 sec)
Heartbeat CPU 0 instructions: 480000003 cycles: 229362576 heartbeat IPC: 0.5381 cumulative IPC: 1.993 (Simulation time: 01 hr 27 min 00 sec)
Heartbeat CPU 0 instructions: 490000002 cycles: 247955663 heartbeat IPC: 0.5378 cumulative IPC: 1.878 (Simulation time: 01 hr 32 min 56 sec)
Heartbeat CPU 0 instructions: 500000003 cycles: 266589942 heartbeat IPC: 0.5366 cumulative IPC: 1.779 (Simulation time: 01 hr 42 min 27 sec)
Heartbeat CPU 0 instructions: 510000002 cycles: 285145163 heartbeat IPC: 0.5389 cumulative IPC: 1.694 (Simulation time: 01 hr 51 min 18 sec)
Heartbeat CPU 0 instructions: 520000003 cycles: 303747594 heartbeat IPC: 0.5376 cumulative IPC: 1.62 (Simulation time: 01 hr 59 min 38 sec)
Heartbeat CPU 0 instructions: 530000004 cycles: 322345389 heartbeat IPC: 0.5377 cumulative IPC: 1.555 (Simulation time: 02 hr 06 min 59 sec)
Heartbeat CPU 0 instructions: 540000004 cycles: 340900657 heartbeat IPC: 0.5389 cumulative IPC: 1.497 (Simulation time: 02 hr 15 min 45 sec)
Heartbeat CPU 0 instructions: 550000000 cycles: 359495951 heartbeat IPC: 0.5378 cumulative IPC: 1.446 (Simulation time: 02 hr 23 min 04 sec)
Heartbeat CPU 0 instructions: 560000002 cycles: 378122141 heartbeat IPC: 0.5369 cumulative IPC: 1.399 (Simulation time: 02 hr 27 min 45 sec)
Heartbeat CPU 0 instructions: 570000003 cycles: 396727704 heartbeat IPC: 0.5375 cumulative IPC: 1.357 (Simulation time: 02 hr 32 min 12 sec)
Heartbeat CPU 0 instructions: 580000000 cycles: 415329522 heartbeat IPC: 0.5376 cumulative IPC: 1.319 (Simulation time: 02 hr 36 min 23 sec)
Heartbeat CPU 0 instructions: 590000000 cycles: 433978524 heartbeat IPC: 0.5362 cumulative IPC: 1.285 (Simulation time: 02 hr 40 min 58 sec)
*** Reached end of trace: (0, "traces/l1l2l3cache.champsimtrace")
Heartbeat CPU 0 instructions: 600000001 cycles: 452574789 heartbeat IPC: 0.5377 cumulative IPC: 1.253 (Simulation time: 02 hr 45 min 40 sec)
Heartbeat CPU 0 instructions: 610000004 cycles: 462641192 heartbeat IPC: 0.9934 cumulative IPC: 1.247 (Simulation time: 02 hr 48 min 15 sec)
Heartbeat CPU 0 instructions: 620000001 cycles: 477856033 heartbeat IPC: 0.6573 cumulative IPC: 1.228 (Simulation time: 02 hr 52 min 01 sec)
Heartbeat CPU 0 instructions: 630000000 cycles: 493017413 heartbeat IPC: 0.6596 cumulative IPC: 1.21 (Simulation time: 02 hr 55 min 42 sec)
Heartbeat CPU 0 instructions: 640000000 cycles: 500113972 heartbeat IPC: 1.409 cumulative IPC: 1.213 (Simulation time: 02 hr 57 min 44 sec)
Heartbeat CPU 0 instructions: 650000001 cycles: 502613973 heartbeat IPC: 4 cumulative IPC: 1.227 (Simulation time: 02 hr 58 min 58 sec)
Simulation finished CPU 0 instructions: 600000003 cycles: 488993373 cumulative IPC: 1.227 (Simulation time: 02 hr 58 min 58 sec)
Simulation complete CPU 0 instructions: 600000003 cycles: 488993373 cumulative IPC: 1.227 (Simulation time: 02 hr 58 min 58 sec)

ChampSim completed all CPUs

=== Simulation ===
CPU 0 runs traces/l1l2l3cache.champsimtrace
Region of Interest Statistics

CPU 0 cumulative IPC: 1.227 instructions: 600000003 cycles: 488993373
CPU 0 Branch Prediction Accuracy: 99.99% MPKI: 0.01094 Average ROB Occupancy at Mispredict: 171.3
Branch type MPKI
BRANCH_DIRECT_JUMP: 8.5e-05
BRANCH_INDIRECT: 0.000237
BRANCH_CONDITIONAL: 0.0105
BRANCH_DIRECT_CALL: 5e-06
BRANCH_INDIRECT_CALL: 4.67e-05
BRANCH_RETURN: 3.67e-05

LLC TOTAL        ACCESS:    3089465 HIT:     301460 MISS:    2788005
LLC LOAD         ACCESS:    1954446 HIT:     205023 MISS:    1749423
LLC RFO          ACCESS:     561710 HIT:      29680 MISS:     532030
LLC PREFETCH     ACCESS:          0 HIT:          0 MISS:          0
LLC WRITE        ACCESS:     562066 HIT:      58160 MISS:     503906
LLC TRANSLATION  ACCESS:      11243 HIT:       8597 MISS:       2646
LLC PREFETCH REQUESTED:          0 ISSUED:          0 USEFUL:          0 USELESS:          0
LLC AVERAGE MISS LATENCY: 573.9 cycles
cpu0_DTLB TOTAL        ACCESS:  124317407 HIT:  122302578 MISS:    2014829
cpu0_DTLB LOAD         ACCESS:  124317407 HIT:  122302578 MISS:    2014829
cpu0_DTLB RFO          ACCESS:          0 HIT:          0 MISS:          0
cpu0_DTLB PREFETCH     ACCESS:          0 HIT:          0 MISS:          0
cpu0_DTLB WRITE        ACCESS:          0 HIT:          0 MISS:          0
cpu0_DTLB TRANSLATION  ACCESS:          0 HIT:          0 MISS:          0
cpu0_DTLB PREFETCH REQUESTED:          0 ISSUED:          0 USEFUL:          0 USELESS:          0
cpu0_DTLB AVERAGE MISS LATENCY: 17.8 cycles
cpu0_ITLB TOTAL        ACCESS:       5106 HIT:       4865 MISS:        241
cpu0_ITLB LOAD         ACCESS:       5106 HIT:       4865 MISS:        241
cpu0_ITLB RFO          ACCESS:          0 HIT:          0 MISS:          0
cpu0_ITLB PREFETCH     ACCESS:          0 HIT:          0 MISS:          0
cpu0_ITLB WRITE        ACCESS:          0 HIT:          0 MISS:          0
cpu0_ITLB TRANSLATION  ACCESS:          0 HIT:          0 MISS:          0
cpu0_ITLB PREFETCH REQUESTED:          0 ISSUED:          0 USEFUL:          0 USELESS:          0
cpu0_ITLB AVERAGE MISS LATENCY: 242 cycles
cpu0_L1D TOTAL        ACCESS:  172087438 HIT:  160826515 MISS:   11260923
cpu0_L1D LOAD         ACCESS:   63765968 HIT:   61716125 MISS:    2049843
cpu0_L1D RFO          ACCESS:          0 HIT:          0 MISS:          0
cpu0_L1D PREFETCH     ACCESS:          0 HIT:          0 MISS:          0
cpu0_L1D WRITE        ACCESS:  107015969 HIT:   98551136 MISS:    8464833
cpu0_L1D TRANSLATION  ACCESS:    1305501 HIT:     559254 MISS:     746247
cpu0_L1D PREFETCH REQUESTED:          0 ISSUED:          0 USEFUL:          0 USELESS:          0
cpu0_L1D AVERAGE MISS LATENCY: 142.3 cycles
cpu0_L1I TOTAL        ACCESS:       5882 HIT:       3309 MISS:       2573
cpu0_L1I LOAD         ACCESS:       5882 HIT:       3309 MISS:       2573
cpu0_L1I RFO          ACCESS:          0 HIT:          0 MISS:          0
cpu0_L1I PREFETCH     ACCESS:          0 HIT:          0 MISS:          0
cpu0_L1I WRITE        ACCESS:          0 HIT:          0 MISS:          0
cpu0_L1I TRANSLATION  ACCESS:          0 HIT:          0 MISS:          0
cpu0_L1I PREFETCH REQUESTED:          0 ISSUED:          0 USEFUL:          0 USELESS:          0
cpu0_L1I AVERAGE MISS LATENCY: 314.7 cycles
cpu0_L2C TOTAL        ACCESS:    3905775 HIT:    1378359 MISS:    2527416
cpu0_L2C LOAD         ACCESS:    2009353 HIT:      54907 MISS:    1954446
cpu0_L2C RFO          ACCESS:     574416 HIT:      12706 MISS:     561710
cpu0_L2C PREFETCH     ACCESS:          0 HIT:          0 MISS:          0
cpu0_L2C WRITE        ACCESS:     575772 HIT:     575755 MISS:         17
cpu0_L2C TRANSLATION  ACCESS:     746234 HIT:     734991 MISS:      11243
cpu0_L2C PREFETCH REQUESTED:          0 ISSUED:          0 USEFUL:          0 USELESS:          0
cpu0_L2C AVERAGE MISS LATENCY: 654 cycles
cpu0_STLB TOTAL        ACCESS:    1982609 HIT:     677116 MISS:    1305493
cpu0_STLB LOAD         ACCESS:    1982609 HIT:     677116 MISS:    1305493
cpu0_STLB RFO          ACCESS:          0 HIT:          0 MISS:          0
cpu0_STLB PREFETCH     ACCESS:          0 HIT:          0 MISS:          0
cpu0_STLB WRITE        ACCESS:          0 HIT:          0 MISS:          0
cpu0_STLB TRANSLATION  ACCESS:          0 HIT:          0 MISS:          0
cpu0_STLB PREFETCH REQUESTED:          0 ISSUED:          0 USEFUL:          0 USELESS:          0
cpu0_STLB AVERAGE MISS LATENCY: 14.42 cycles

DRAM Statistics

Channel 0 RQ ROW_BUFFER_HIT:     114635
  ROW_BUFFER_MISS:    2169181
 AVG DBUS CONGESTED CYCLE: 3.94
WQ ROW_BUFFER_HIT: Channel 0 
  ROW_BUFFER_MISS:     166257
  FULL:     369644
Final OPTGen Hits: 11556
Final OPTGen Access: 43849
Final OPTGEN Hit Rate: 26.3541
