WARNING: physical memory size is smaller than virtual memory size.

*** ChampSim Multicore Out-of-Order Simulator ***
Warmup Instructions: 50000000
Simulation Instructions: 600000000
Number of CPUs: 1
Page size: 4096

CPU 0 Tage branch predictor
Off-chip DRAM Size: 4 GiB Channels: 1 Width: 64-bit Data Race: 3200 MT/s
Heartbeat CPU 0 instructions: 10000000 cycles: 2565785 heartbeat IPC: 3.897 cumulative IPC: 3.897 (Simulation time: 00 hr 00 min 59 sec)
Heartbeat CPU 0 instructions: 20000000 cycles: 5131274 heartbeat IPC: 3.898 cumulative IPC: 3.898 (Simulation time: 00 hr 01 min 54 sec)
Heartbeat CPU 0 instructions: 30000000 cycles: 7631274 heartbeat IPC: 4 cumulative IPC: 3.931 (Simulation time: 00 hr 02 min 48 sec)
Heartbeat CPU 0 instructions: 40000000 cycles: 10131274 heartbeat IPC: 4 cumulative IPC: 3.948 (Simulation time: 00 hr 03 min 42 sec)
Heartbeat CPU 0 instructions: 50000000 cycles: 12631274 heartbeat IPC: 4 cumulative IPC: 3.958 (Simulation time: 00 hr 04 min 37 sec)
Warmup finished CPU 0 instructions: 50000000 cycles: 12631275 cumulative IPC: 3.958 (Simulation time: 00 hr 04 min 37 sec)
Warmup complete CPU 0 instructions: 50000000 cycles: 12631275 cumulative IPC: 3.958 (Simulation time: 00 hr 04 min 37 sec)
Heartbeat CPU 0 instructions: 60000002 cycles: 15446860 heartbeat IPC: 3.552 cumulative IPC: 3.552 (Simulation time: 00 hr 05 min 35 sec)
Heartbeat CPU 0 instructions: 70000001 cycles: 18261922 heartbeat IPC: 3.552 cumulative IPC: 3.552 (Simulation time: 00 hr 06 min 34 sec)
Heartbeat CPU 0 instructions: 80000004 cycles: 21079021 heartbeat IPC: 3.55 cumulative IPC: 3.551 (Simulation time: 00 hr 07 min 42 sec)
Heartbeat CPU 0 instructions: 90000000 cycles: 23893913 heartbeat IPC: 3.553 cumulative IPC: 3.552 (Simulation time: 00 hr 08 min 42 sec)
Heartbeat CPU 0 instructions: 100000003 cycles: 26710910 heartbeat IPC: 3.55 cumulative IPC: 3.551 (Simulation time: 00 hr 09 min 41 sec)
Heartbeat CPU 0 instructions: 110000000 cycles: 29526056 heartbeat IPC: 3.552 cumulative IPC: 3.551 (Simulation time: 00 hr 10 min 47 sec)
Heartbeat CPU 0 instructions: 120000002 cycles: 32340652 heartbeat IPC: 3.553 cumulative IPC: 3.552 (Simulation time: 00 hr 11 min 52 sec)
Heartbeat CPU 0 instructions: 130000001 cycles: 35155871 heartbeat IPC: 3.552 cumulative IPC: 3.552 (Simulation time: 00 hr 12 min 55 sec)
Heartbeat CPU 0 instructions: 140000002 cycles: 37970732 heartbeat IPC: 3.553 cumulative IPC: 3.552 (Simulation time: 00 hr 13 min 58 sec)
Heartbeat CPU 0 instructions: 150000000 cycles: 40786093 heartbeat IPC: 3.552 cumulative IPC: 3.552 (Simulation time: 00 hr 15 min 00 sec)
Heartbeat CPU 0 instructions: 160000002 cycles: 43603215 heartbeat IPC: 3.55 cumulative IPC: 3.552 (Simulation time: 00 hr 15 min 59 sec)
Heartbeat CPU 0 instructions: 170000000 cycles: 46419904 heartbeat IPC: 3.55 cumulative IPC: 3.551 (Simulation time: 00 hr 17 min 00 sec)
Heartbeat CPU 0 instructions: 180000003 cycles: 49235188 heartbeat IPC: 3.552 cumulative IPC: 3.552 (Simulation time: 00 hr 17 min 56 sec)
Heartbeat CPU 0 instructions: 190000001 cycles: 52051321 heartbeat IPC: 3.551 cumulative IPC: 3.551 (Simulation time: 00 hr 18 min 54 sec)
Heartbeat CPU 0 instructions: 200000001 cycles: 54867266 heartbeat IPC: 3.551 cumulative IPC: 3.551 (Simulation time: 00 hr 19 min 50 sec)
Heartbeat CPU 0 instructions: 210000004 cycles: 57683189 heartbeat IPC: 3.551 cumulative IPC: 3.551 (Simulation time: 00 hr 20 min 48 sec)
Heartbeat CPU 0 instructions: 220000002 cycles: 60498850 heartbeat IPC: 3.552 cumulative IPC: 3.551 (Simulation time: 00 hr 21 min 45 sec)
Heartbeat CPU 0 instructions: 230000001 cycles: 64322473 heartbeat IPC: 2.615 cumulative IPC: 3.482 (Simulation time: 00 hr 23 min 00 sec)
Heartbeat CPU 0 instructions: 240000003 cycles: 71639826 heartbeat IPC: 1.367 cumulative IPC: 3.22 (Simulation time: 00 hr 24 min 52 sec)
Heartbeat CPU 0 instructions: 250000003 cycles: 74455267 heartbeat IPC: 3.552 cumulative IPC: 3.235 (Simulation time: 00 hr 25 min 56 sec)
Heartbeat CPU 0 instructions: 260000002 cycles: 77269436 heartbeat IPC: 3.553 cumulative IPC: 3.249 (Simulation time: 00 hr 26 min 57 sec)
Heartbeat CPU 0 instructions: 270000004 cycles: 80084325 heartbeat IPC: 3.553 cumulative IPC: 3.262 (Simulation time: 00 hr 27 min 54 sec)
Heartbeat CPU 0 instructions: 280000001 cycles: 82900755 heartbeat IPC: 3.551 cumulative IPC: 3.273 (Simulation time: 00 hr 28 min 46 sec)
Heartbeat CPU 0 instructions: 290000002 cycles: 85716247 heartbeat IPC: 3.552 cumulative IPC: 3.284 (Simulation time: 00 hr 29 min 27 sec)
Heartbeat CPU 0 instructions: 300000004 cycles: 88532777 heartbeat IPC: 3.55 cumulative IPC: 3.294 (Simulation time: 00 hr 30 min 10 sec)
Heartbeat CPU 0 instructions: 310000002 cycles: 91349426 heartbeat IPC: 3.55 cumulative IPC: 3.303 (Simulation time: 00 hr 31 min 39 sec)
Heartbeat CPU 0 instructions: 320000000 cycles: 94165890 heartbeat IPC: 3.551 cumulative IPC: 3.311 (Simulation time: 00 hr 33 min 16 sec)
Heartbeat CPU 0 instructions: 330000004 cycles: 96981965 heartbeat IPC: 3.551 cumulative IPC: 3.319 (Simulation time: 00 hr 34 min 15 sec)
Heartbeat CPU 0 instructions: 340000000 cycles: 99798811 heartbeat IPC: 3.55 cumulative IPC: 3.327 (Simulation time: 00 hr 34 min 59 sec)
Heartbeat CPU 0 instructions: 350000003 cycles: 102614852 heartbeat IPC: 3.551 cumulative IPC: 3.334 (Simulation time: 00 hr 35 min 43 sec)
Heartbeat CPU 0 instructions: 360000003 cycles: 105431124 heartbeat IPC: 3.551 cumulative IPC: 3.341 (Simulation time: 00 hr 36 min 27 sec)
Heartbeat CPU 0 instructions: 370000003 cycles: 108248027 heartbeat IPC: 3.55 cumulative IPC: 3.347 (Simulation time: 00 hr 37 min 11 sec)
Heartbeat CPU 0 instructions: 380000003 cycles: 111063014 heartbeat IPC: 3.552 cumulative IPC: 3.353 (Simulation time: 00 hr 37 min 55 sec)
Heartbeat CPU 0 instructions: 390000000 cycles: 113878315 heartbeat IPC: 3.552 cumulative IPC: 3.358 (Simulation time: 00 hr 38 min 39 sec)
Heartbeat CPU 0 instructions: 400000002 cycles: 116695386 heartbeat IPC: 3.55 cumulative IPC: 3.363 (Simulation time: 00 hr 39 min 23 sec)
Heartbeat CPU 0 instructions: 410000004 cycles: 119510970 heartbeat IPC: 3.552 cumulative IPC: 3.368 (Simulation time: 00 hr 40 min 08 sec)
Heartbeat CPU 0 instructions: 420000001 cycles: 122328225 heartbeat IPC: 3.55 cumulative IPC: 3.373 (Simulation time: 00 hr 40 min 53 sec)
Heartbeat CPU 0 instructions: 430000001 cycles: 125143372 heartbeat IPC: 3.552 cumulative IPC: 3.377 (Simulation time: 00 hr 41 min 38 sec)
Heartbeat CPU 0 instructions: 440000002 cycles: 127959266 heartbeat IPC: 3.551 cumulative IPC: 3.382 (Simulation time: 00 hr 42 min 22 sec)
Heartbeat CPU 0 instructions: 450000001 cycles: 131345765 heartbeat IPC: 2.953 cumulative IPC: 3.369 (Simulation time: 00 hr 43 min 12 sec)
Heartbeat CPU 0 instructions: 460000002 cycles: 137959645 heartbeat IPC: 1.512 cumulative IPC: 3.271 (Simulation time: 00 hr 44 min 28 sec)
Heartbeat CPU 0 instructions: 470000004 cycles: 140776373 heartbeat IPC: 3.55 cumulative IPC: 3.278 (Simulation time: 00 hr 45 min 10 sec)
Heartbeat CPU 0 instructions: 480000000 cycles: 143592458 heartbeat IPC: 3.551 cumulative IPC: 3.283 (Simulation time: 00 hr 45 min 53 sec)
Heartbeat CPU 0 instructions: 490000000 cycles: 146409119 heartbeat IPC: 3.55 cumulative IPC: 3.289 (Simulation time: 00 hr 46 min 35 sec)
Heartbeat CPU 0 instructions: 500000002 cycles: 149224628 heartbeat IPC: 3.552 cumulative IPC: 3.294 (Simulation time: 00 hr 47 min 16 sec)
Heartbeat CPU 0 instructions: 510000001 cycles: 152040126 heartbeat IPC: 3.552 cumulative IPC: 3.3 (Simulation time: 00 hr 47 min 58 sec)
Heartbeat CPU 0 instructions: 520000003 cycles: 154856248 heartbeat IPC: 3.551 cumulative IPC: 3.305 (Simulation time: 00 hr 48 min 40 sec)
Heartbeat CPU 0 instructions: 530000002 cycles: 157672274 heartbeat IPC: 3.551 cumulative IPC: 3.309 (Simulation time: 00 hr 49 min 21 sec)
Heartbeat CPU 0 instructions: 540000000 cycles: 160488057 heartbeat IPC: 3.551 cumulative IPC: 3.314 (Simulation time: 00 hr 50 min 04 sec)
Heartbeat CPU 0 instructions: 550000000 cycles: 163302962 heartbeat IPC: 3.553 cumulative IPC: 3.318 (Simulation time: 00 hr 50 min 46 sec)
Heartbeat CPU 0 instructions: 560000001 cycles: 166118869 heartbeat IPC: 3.551 cumulative IPC: 3.323 (Simulation time: 00 hr 51 min 27 sec)
Heartbeat CPU 0 instructions: 570000001 cycles: 168935828 heartbeat IPC: 3.55 cumulative IPC: 3.327 (Simulation time: 00 hr 52 min 10 sec)
Heartbeat CPU 0 instructions: 580000002 cycles: 171752539 heartbeat IPC: 3.55 cumulative IPC: 3.331 (Simulation time: 00 hr 52 min 53 sec)
Heartbeat CPU 0 instructions: 590000003 cycles: 174567678 heartbeat IPC: 3.552 cumulative IPC: 3.335 (Simulation time: 00 hr 53 min 45 sec)
*** Reached end of trace: (0, "traces/l1l2cache.champsimtrace")
Heartbeat CPU 0 instructions: 600000001 cycles: 177384684 heartbeat IPC: 3.55 cumulative IPC: 3.338 (Simulation time: 00 hr 54 min 36 sec)
Heartbeat CPU 0 instructions: 610000001 cycles: 180727339 heartbeat IPC: 2.992 cumulative IPC: 3.331 (Simulation time: 00 hr 55 min 26 sec)
Heartbeat CPU 0 instructions: 620000004 cycles: 183358152 heartbeat IPC: 3.801 cumulative IPC: 3.339 (Simulation time: 00 hr 56 min 11 sec)
Heartbeat CPU 0 instructions: 630000004 cycles: 186172922 heartbeat IPC: 3.553 cumulative IPC: 3.342 (Simulation time: 00 hr 56 min 58 sec)
Heartbeat CPU 0 instructions: 640000000 cycles: 188988939 heartbeat IPC: 3.551 cumulative IPC: 3.345 (Simulation time: 00 hr 57 min 55 sec)
Heartbeat CPU 0 instructions: 650000004 cycles: 191804326 heartbeat IPC: 3.552 cumulative IPC: 3.349 (Simulation time: 00 hr 58 min 41 sec)
Simulation finished CPU 0 instructions: 600000004 cycles: 179173052 cumulative IPC: 3.349 (Simulation time: 00 hr 58 min 41 sec)
Simulation complete CPU 0 instructions: 600000004 cycles: 179173052 cumulative IPC: 3.349 (Simulation time: 00 hr 58 min 41 sec)

ChampSim completed all CPUs

=== Simulation ===
CPU 0 runs traces/l1l2cache.champsimtrace
Region of Interest Statistics

CPU 0 cumulative IPC: 3.349 instructions: 600000004 cycles: 179173052
CPU 0 Branch Prediction Accuracy: 97.76% MPKI: 1.901 Average ROB Occupancy at Mispredict: 151.2
Branch type MPKI
BRANCH_DIRECT_JUMP: 9.5e-05
BRANCH_INDIRECT: 0.000282
BRANCH_CONDITIONAL: 1.9
BRANCH_DIRECT_CALL: 3.33e-06
BRANCH_INDIRECT_CALL: 4.83e-05
BRANCH_RETURN: 3.33e-05

LLC TOTAL        ACCESS:     319115 HIT:     160855 MISS:     158260
LLC LOAD         ACCESS:      59445 HIT:      36648 MISS:      22797
LLC RFO          ACCESS:      99913 HIT:      46257 MISS:      53656
LLC PREFETCH     ACCESS:      59445 HIT:      30094 MISS:      29351
LLC WRITE        ACCESS:     100307 HIT:      47855 MISS:      52452
LLC TRANSLATION  ACCESS:          5 HIT:          1 MISS:          4
LLC PREFETCH REQUESTED:      59445 ISSUED:      59445 USEFUL:      26843 USELESS:       1806
LLC AVERAGE MISS LATENCY: 355.2 cycles
cpu0_DTLB TOTAL        ACCESS:   78707035 HIT:   78696129 MISS:      10906
cpu0_DTLB LOAD         ACCESS:   78707035 HIT:   78696129 MISS:      10906
cpu0_DTLB RFO          ACCESS:          0 HIT:          0 MISS:          0
cpu0_DTLB PREFETCH     ACCESS:          0 HIT:          0 MISS:          0
cpu0_DTLB WRITE        ACCESS:          0 HIT:          0 MISS:          0
cpu0_DTLB TRANSLATION  ACCESS:          0 HIT:          0 MISS:          0
cpu0_DTLB PREFETCH REQUESTED:          0 ISSUED:          0 USEFUL:          0 USELESS:          0
cpu0_DTLB AVERAGE MISS LATENCY: 5.798 cycles
cpu0_ITLB TOTAL        ACCESS:       5619 HIT:       5377 MISS:        242
cpu0_ITLB LOAD         ACCESS:       5619 HIT:       5377 MISS:        242
cpu0_ITLB RFO          ACCESS:          0 HIT:          0 MISS:          0
cpu0_ITLB PREFETCH     ACCESS:          0 HIT:          0 MISS:          0
cpu0_ITLB WRITE        ACCESS:          0 HIT:          0 MISS:          0
cpu0_ITLB TRANSLATION  ACCESS:          0 HIT:          0 MISS:          0
cpu0_ITLB PREFETCH REQUESTED:          0 ISSUED:          0 USEFUL:          0 USELESS:          0
cpu0_ITLB AVERAGE MISS LATENCY: 5.702 cycles
cpu0_L1D TOTAL        ACCESS:   97747528 HIT:   95945855 MISS:    1801673
cpu0_L1D LOAD         ACCESS:   38663168 HIT:   38193695 MISS:     469473
cpu0_L1D RFO          ACCESS:          0 HIT:          0 MISS:          0
cpu0_L1D PREFETCH     ACCESS:          0 HIT:          0 MISS:          0
cpu0_L1D WRITE        ACCESS:   59084102 HIT:   57751907 MISS:    1332195
cpu0_L1D TRANSLATION  ACCESS:        258 HIT:        253 MISS:          5
cpu0_L1D PREFETCH REQUESTED:          0 ISSUED:          0 USEFUL:          0 USELESS:          0
cpu0_L1D AVERAGE MISS LATENCY: 26.9 cycles
cpu0_L1I TOTAL        ACCESS:       6404 HIT:       3962 MISS:       2442
cpu0_L1I LOAD         ACCESS:       6404 HIT:       3962 MISS:       2442
cpu0_L1I RFO          ACCESS:          0 HIT:          0 MISS:          0
cpu0_L1I PREFETCH     ACCESS:          0 HIT:          0 MISS:          0
cpu0_L1I WRITE        ACCESS:          0 HIT:          0 MISS:          0
cpu0_L1I TRANSLATION  ACCESS:          0 HIT:          0 MISS:          0
cpu0_L1I PREFETCH REQUESTED:          0 ISSUED:          0 USEFUL:          0 USELESS:          0
cpu0_L1I AVERAGE MISS LATENCY: 170.4 cycles
cpu0_L2C TOTAL        ACCESS:     265758 HIT:     106374 MISS:     159384
cpu0_L2C LOAD         ACCESS:      63735 HIT:       4290 MISS:      59445
cpu0_L2C RFO          ACCESS:     100747 HIT:        834 MISS:      99913
cpu0_L2C PREFETCH     ACCESS:          0 HIT:          0 MISS:          0
cpu0_L2C WRITE        ACCESS:     101271 HIT:     101250 MISS:         21
cpu0_L2C TRANSLATION  ACCESS:          5 HIT:          0 MISS:          5
cpu0_L2C PREFETCH REQUESTED:          0 ISSUED:          0 USEFUL:          0 USELESS:          0
cpu0_L2C AVERAGE MISS LATENCY: 340.1 cycles
cpu0_STLB TOTAL        ACCESS:       3913 HIT:       3656 MISS:        257
cpu0_STLB LOAD         ACCESS:       3913 HIT:       3656 MISS:        257
cpu0_STLB RFO          ACCESS:          0 HIT:          0 MISS:          0
cpu0_STLB PREFETCH     ACCESS:          0 HIT:          0 MISS:          0
cpu0_STLB WRITE        ACCESS:          0 HIT:          0 MISS:          0
cpu0_STLB TRANSLATION  ACCESS:          0 HIT:          0 MISS:          0
cpu0_STLB PREFETCH REQUESTED:          0 ISSUED:          0 USEFUL:          0 USELESS:          0
cpu0_STLB AVERAGE MISS LATENCY: 216.2 cycles

DRAM Statistics

Channel 0 RQ ROW_BUFFER_HIT:      38223
  ROW_BUFFER_MISS:      46071
 AVG DBUS CONGESTED CYCLE: 3.965
WQ ROW_BUFFER_HIT: Channel 0 
  ROW_BUFFER_MISS:      15072
  FULL:      37257
