WARNING: physical memory size is smaller than virtual memory size.

*** ChampSim Multicore Out-of-Order Simulator ***
Warmup Instructions: 50000000
Simulation Instructions: 600000000
Number of CPUs: 1
Page size: 4096

Off-chip DRAM Size: 4 GiB Channels: 1 Width: 64-bit Data Race: 3200 MT/s
Heartbeat CPU 0 instructions: 10000004 cycles: 2777663 heartbeat IPC: 3.6 cumulative IPC: 3.6 (Simulation time: 00 hr 00 min 40 sec)
Heartbeat CPU 0 instructions: 20000001 cycles: 5634805 heartbeat IPC: 3.5 cumulative IPC: 3.549 (Simulation time: 00 hr 01 min 22 sec)
Heartbeat CPU 0 instructions: 30000000 cycles: 8491948 heartbeat IPC: 3.5 cumulative IPC: 3.533 (Simulation time: 00 hr 02 min 00 sec)
Heartbeat CPU 0 instructions: 40000003 cycles: 11120601 heartbeat IPC: 3.804 cumulative IPC: 3.597 (Simulation time: 00 hr 02 min 37 sec)
Heartbeat CPU 0 instructions: 50000003 cycles: 13620601 heartbeat IPC: 4 cumulative IPC: 3.671 (Simulation time: 00 hr 03 min 15 sec)
Warmup finished CPU 0 instructions: 50000003 cycles: 13620602 cumulative IPC: 3.671 (Simulation time: 00 hr 03 min 15 sec)
Warmup complete CPU 0 instructions: 50000003 cycles: 13620602 cumulative IPC: 3.671 (Simulation time: 00 hr 03 min 15 sec)
Heartbeat CPU 0 instructions: 60000002 cycles: 16347845 heartbeat IPC: 3.667 cumulative IPC: 3.667 (Simulation time: 00 hr 03 min 56 sec)
Heartbeat CPU 0 instructions: 70000001 cycles: 19075145 heartbeat IPC: 3.667 cumulative IPC: 3.667 (Simulation time: 00 hr 04 min 36 sec)
Heartbeat CPU 0 instructions: 80000001 cycles: 21802387 heartbeat IPC: 3.667 cumulative IPC: 3.667 (Simulation time: 00 hr 05 min 24 sec)
Heartbeat CPU 0 instructions: 90000000 cycles: 24530053 heartbeat IPC: 3.666 cumulative IPC: 3.667 (Simulation time: 00 hr 06 min 30 sec)
Heartbeat CPU 0 instructions: 100000003 cycles: 27257296 heartbeat IPC: 3.667 cumulative IPC: 3.667 (Simulation time: 00 hr 07 min 39 sec)
Heartbeat CPU 0 instructions: 110000004 cycles: 29984599 heartbeat IPC: 3.667 cumulative IPC: 3.667 (Simulation time: 00 hr 08 min 45 sec)
Heartbeat CPU 0 instructions: 120000003 cycles: 32711869 heartbeat IPC: 3.667 cumulative IPC: 3.667 (Simulation time: 00 hr 09 min 47 sec)
Heartbeat CPU 0 instructions: 130000003 cycles: 35439142 heartbeat IPC: 3.667 cumulative IPC: 3.667 (Simulation time: 00 hr 10 min 45 sec)
Heartbeat CPU 0 instructions: 140000002 cycles: 38166866 heartbeat IPC: 3.666 cumulative IPC: 3.667 (Simulation time: 00 hr 11 min 39 sec)
Heartbeat CPU 0 instructions: 150000000 cycles: 40894109 heartbeat IPC: 3.667 cumulative IPC: 3.667 (Simulation time: 00 hr 12 min 30 sec)
Heartbeat CPU 0 instructions: 160000001 cycles: 43621413 heartbeat IPC: 3.667 cumulative IPC: 3.667 (Simulation time: 00 hr 13 min 21 sec)
Heartbeat CPU 0 instructions: 170000004 cycles: 46348654 heartbeat IPC: 3.667 cumulative IPC: 3.667 (Simulation time: 00 hr 14 min 14 sec)
Heartbeat CPU 0 instructions: 180000000 cycles: 49076337 heartbeat IPC: 3.666 cumulative IPC: 3.667 (Simulation time: 00 hr 15 min 03 sec)
Heartbeat CPU 0 instructions: 190000004 cycles: 51803623 heartbeat IPC: 3.667 cumulative IPC: 3.667 (Simulation time: 00 hr 15 min 55 sec)
Heartbeat CPU 0 instructions: 200000002 cycles: 54530881 heartbeat IPC: 3.667 cumulative IPC: 3.667 (Simulation time: 00 hr 16 min 46 sec)
Heartbeat CPU 0 instructions: 210000003 cycles: 57258184 heartbeat IPC: 3.667 cumulative IPC: 3.667 (Simulation time: 00 hr 17 min 35 sec)
Heartbeat CPU 0 instructions: 220000001 cycles: 59985426 heartbeat IPC: 3.667 cumulative IPC: 3.667 (Simulation time: 00 hr 18 min 24 sec)
Heartbeat CPU 0 instructions: 230000002 cycles: 62713102 heartbeat IPC: 3.666 cumulative IPC: 3.667 (Simulation time: 00 hr 19 min 14 sec)
Heartbeat CPU 0 instructions: 240000003 cycles: 65440344 heartbeat IPC: 3.667 cumulative IPC: 3.667 (Simulation time: 00 hr 20 min 06 sec)
Heartbeat CPU 0 instructions: 250000004 cycles: 68167647 heartbeat IPC: 3.667 cumulative IPC: 3.667 (Simulation time: 00 hr 20 min 56 sec)
Heartbeat CPU 0 instructions: 260000000 cycles: 70894930 heartbeat IPC: 3.667 cumulative IPC: 3.667 (Simulation time: 00 hr 21 min 45 sec)
Heartbeat CPU 0 instructions: 270000003 cycles: 73622548 heartbeat IPC: 3.666 cumulative IPC: 3.667 (Simulation time: 00 hr 22 min 35 sec)
Heartbeat CPU 0 instructions: 280000001 cycles: 76349849 heartbeat IPC: 3.667 cumulative IPC: 3.667 (Simulation time: 00 hr 23 min 27 sec)
Heartbeat CPU 0 instructions: 290000000 cycles: 79077090 heartbeat IPC: 3.667 cumulative IPC: 3.667 (Simulation time: 00 hr 24 min 15 sec)
Heartbeat CPU 0 instructions: 300000001 cycles: 81804393 heartbeat IPC: 3.667 cumulative IPC: 3.667 (Simulation time: 00 hr 25 min 02 sec)
Heartbeat CPU 0 instructions: 310000000 cycles: 84531635 heartbeat IPC: 3.667 cumulative IPC: 3.667 (Simulation time: 00 hr 25 min 48 sec)
Heartbeat CPU 0 instructions: 320000000 cycles: 87259312 heartbeat IPC: 3.666 cumulative IPC: 3.667 (Simulation time: 00 hr 26 min 38 sec)
Heartbeat CPU 0 instructions: 330000001 cycles: 89986608 heartbeat IPC: 3.667 cumulative IPC: 3.667 (Simulation time: 00 hr 27 min 26 sec)
Heartbeat CPU 0 instructions: 340000002 cycles: 92713855 heartbeat IPC: 3.667 cumulative IPC: 3.667 (Simulation time: 00 hr 28 min 16 sec)
Heartbeat CPU 0 instructions: 350000003 cycles: 95441158 heartbeat IPC: 3.667 cumulative IPC: 3.667 (Simulation time: 00 hr 29 min 02 sec)
Heartbeat CPU 0 instructions: 360000001 cycles: 98168763 heartbeat IPC: 3.666 cumulative IPC: 3.667 (Simulation time: 00 hr 29 min 51 sec)
Heartbeat CPU 0 instructions: 370000002 cycles: 100896067 heartbeat IPC: 3.667 cumulative IPC: 3.667 (Simulation time: 00 hr 30 min 38 sec)
Heartbeat CPU 0 instructions: 380000001 cycles: 103623321 heartbeat IPC: 3.667 cumulative IPC: 3.667 (Simulation time: 00 hr 31 min 24 sec)
Heartbeat CPU 0 instructions: 390000004 cycles: 106350610 heartbeat IPC: 3.667 cumulative IPC: 3.667 (Simulation time: 00 hr 32 min 08 sec)
Heartbeat CPU 0 instructions: 400000000 cycles: 109077910 heartbeat IPC: 3.667 cumulative IPC: 3.667 (Simulation time: 00 hr 32 min 52 sec)
Heartbeat CPU 0 instructions: 410000003 cycles: 111805528 heartbeat IPC: 3.666 cumulative IPC: 3.667 (Simulation time: 00 hr 33 min 39 sec)
Heartbeat CPU 0 instructions: 420000000 cycles: 122165905 heartbeat IPC: 0.9652 cumulative IPC: 3.409 (Simulation time: 00 hr 35 min 28 sec)
Heartbeat CPU 0 instructions: 430000003 cycles: 144166771 heartbeat IPC: 0.4545 cumulative IPC: 2.911 (Simulation time: 00 hr 38 min 59 sec)
Heartbeat CPU 0 instructions: 440000004 cycles: 162796844 heartbeat IPC: 0.5368 cumulative IPC: 2.614 (Simulation time: 00 hr 42 min 01 sec)
Heartbeat CPU 0 instructions: 450000001 cycles: 181374980 heartbeat IPC: 0.5383 cumulative IPC: 2.384 (Simulation time: 00 hr 44 min 58 sec)
Heartbeat CPU 0 instructions: 460000001 cycles: 199903590 heartbeat IPC: 0.5397 cumulative IPC: 2.201 (Simulation time: 00 hr 47 min 55 sec)
Heartbeat CPU 0 instructions: 470000003 cycles: 218463161 heartbeat IPC: 0.5388 cumulative IPC: 2.05 (Simulation time: 00 hr 50 min 56 sec)
Heartbeat CPU 0 instructions: 480000003 cycles: 236980995 heartbeat IPC: 0.54 cumulative IPC: 1.925 (Simulation time: 00 hr 53 min 57 sec)
Heartbeat CPU 0 instructions: 490000004 cycles: 255533629 heartbeat IPC: 0.539 cumulative IPC: 1.819 (Simulation time: 00 hr 56 min 16 sec)
Heartbeat CPU 0 instructions: 500000001 cycles: 274082626 heartbeat IPC: 0.5391 cumulative IPC: 1.728 (Simulation time: 00 hr 58 min 30 sec)
Heartbeat CPU 0 instructions: 510000002 cycles: 292615781 heartbeat IPC: 0.5396 cumulative IPC: 1.649 (Simulation time: 01 hr 00 min 46 sec)
Heartbeat CPU 0 instructions: 520000003 cycles: 311136741 heartbeat IPC: 0.5399 cumulative IPC: 1.58 (Simulation time: 01 hr 03 min 19 sec)
Heartbeat CPU 0 instructions: 530000004 cycles: 329643974 heartbeat IPC: 0.5403 cumulative IPC: 1.519 (Simulation time: 01 hr 05 min 44 sec)
Heartbeat CPU 0 instructions: 540000004 cycles: 348151462 heartbeat IPC: 0.5403 cumulative IPC: 1.465 (Simulation time: 01 hr 08 min 06 sec)
Heartbeat CPU 0 instructions: 550000000 cycles: 366644645 heartbeat IPC: 0.5407 cumulative IPC: 1.416 (Simulation time: 01 hr 10 min 22 sec)
Heartbeat CPU 0 instructions: 560000002 cycles: 385176637 heartbeat IPC: 0.5396 cumulative IPC: 1.373 (Simulation time: 01 hr 12 min 37 sec)
Heartbeat CPU 0 instructions: 570000002 cycles: 403770842 heartbeat IPC: 0.5378 cumulative IPC: 1.333 (Simulation time: 01 hr 14 min 55 sec)
Heartbeat CPU 0 instructions: 580000000 cycles: 422351242 heartbeat IPC: 0.5382 cumulative IPC: 1.297 (Simulation time: 01 hr 18 min 05 sec)
Heartbeat CPU 0 instructions: 590000000 cycles: 440921998 heartbeat IPC: 0.5385 cumulative IPC: 1.264 (Simulation time: 01 hr 21 min 03 sec)
*** Reached end of trace: (0, "traces/l1l2l3cache.champsimtrace")
Heartbeat CPU 0 instructions: 600000000 cycles: 459436172 heartbeat IPC: 0.5401 cumulative IPC: 1.234 (Simulation time: 01 hr 23 min 27 sec)
Heartbeat CPU 0 instructions: 610000004 cycles: 472601081 heartbeat IPC: 0.7596 cumulative IPC: 1.22 (Simulation time: 01 hr 25 min 00 sec)
Heartbeat CPU 0 instructions: 620000001 cycles: 487086131 heartbeat IPC: 0.6904 cumulative IPC: 1.204 (Simulation time: 01 hr 26 min 47 sec)
Heartbeat CPU 0 instructions: 630000002 cycles: 501632587 heartbeat IPC: 0.6875 cumulative IPC: 1.188 (Simulation time: 01 hr 28 min 27 sec)
Heartbeat CPU 0 instructions: 640000000 cycles: 508681368 heartbeat IPC: 1.419 cumulative IPC: 1.192 (Simulation time: 01 hr 29 min 19 sec)
Heartbeat CPU 0 instructions: 650000003 cycles: 511408640 heartbeat IPC: 3.667 cumulative IPC: 1.205 (Simulation time: 01 hr 29 min 46 sec)
Simulation finished CPU 0 instructions: 600000000 cycles: 497788039 cumulative IPC: 1.205 (Simulation time: 01 hr 29 min 46 sec)
Simulation complete CPU 0 instructions: 600000000 cycles: 497788039 cumulative IPC: 1.205 (Simulation time: 01 hr 29 min 46 sec)

ChampSim completed all CPUs

=== Simulation ===
CPU 0 runs traces/l1l2l3cache.champsimtrace
Region of Interest Statistics

CPU 0 cumulative IPC: 1.205 instructions: 600000000 cycles: 497788039
CPU 0 Branch Prediction Accuracy: 99.34% MPKI: 1.413 Average ROB Occupancy at Mispredict: 143
Branch type MPKI
BRANCH_DIRECT_JUMP: 8.5e-05
BRANCH_INDIRECT: 0.000237
BRANCH_CONDITIONAL: 1.41
BRANCH_DIRECT_CALL: 5e-06
BRANCH_INDIRECT_CALL: 4.67e-05
BRANCH_RETURN: 3.67e-05

LLC TOTAL        ACCESS:    3095805 HIT:     435456 MISS:    2660349
LLC LOAD         ACCESS:    1954442 HIT:     220292 MISS:    1734150
LLC RFO          ACCESS:     561712 HIT:      22179 MISS:     539533
LLC PREFETCH     ACCESS:       6340 HIT:       1755 MISS:       4585
LLC WRITE        ACCESS:     562062 HIT:     182191 MISS:     379871
LLC TRANSLATION  ACCESS:      11249 HIT:       9039 MISS:       2210
LLC PREFETCH REQUESTED:       6340 ISSUED:       6340 USEFUL:       2265 USELESS:          9
LLC AVERAGE MISS LATENCY: 605.7 cycles
cpu0_DTLB TOTAL        ACCESS:  131268493 HIT:  129254103 MISS:    2014390
cpu0_DTLB LOAD         ACCESS:  131268493 HIT:  129254103 MISS:    2014390
cpu0_DTLB RFO          ACCESS:          0 HIT:          0 MISS:          0
cpu0_DTLB PREFETCH     ACCESS:          0 HIT:          0 MISS:          0
cpu0_DTLB WRITE        ACCESS:          0 HIT:          0 MISS:          0
cpu0_DTLB TRANSLATION  ACCESS:          0 HIT:          0 MISS:          0
cpu0_DTLB PREFETCH REQUESTED:          0 ISSUED:          0 USEFUL:          0 USELESS:          0
cpu0_DTLB AVERAGE MISS LATENCY: 17.65 cycles
cpu0_ITLB TOTAL        ACCESS:       5010 HIT:       4789 MISS:        221
cpu0_ITLB LOAD         ACCESS:       5010 HIT:       4789 MISS:        221
cpu0_ITLB RFO          ACCESS:          0 HIT:          0 MISS:          0
cpu0_ITLB PREFETCH     ACCESS:          0 HIT:          0 MISS:          0
cpu0_ITLB WRITE        ACCESS:          0 HIT:          0 MISS:          0
cpu0_ITLB TRANSLATION  ACCESS:          0 HIT:          0 MISS:          0
cpu0_ITLB PREFETCH REQUESTED:          0 ISSUED:          0 USEFUL:          0 USELESS:          0
cpu0_ITLB AVERAGE MISS LATENCY: 261.6 cycles
cpu0_L1D TOTAL        ACCESS:  178619590 HIT:  167094638 MISS:   11524952
cpu0_L1D LOAD         ACCESS:   70628419 HIT:   68580783 MISS:    2047636
cpu0_L1D RFO          ACCESS:          0 HIT:          0 MISS:          0
cpu0_L1D PREFETCH     ACCESS:          0 HIT:          0 MISS:          0
cpu0_L1D WRITE        ACCESS:  106685669 HIT:   97954602 MISS:    8731067
cpu0_L1D TRANSLATION  ACCESS:    1305502 HIT:     559253 MISS:     746249
cpu0_L1D PREFETCH REQUESTED:          0 ISSUED:          0 USEFUL:          0 USELESS:          0
cpu0_L1D AVERAGE MISS LATENCY: 138.8 cycles
cpu0_L1I TOTAL        ACCESS:       5713 HIT:       3432 MISS:       2281
cpu0_L1I LOAD         ACCESS:       5713 HIT:       3432 MISS:       2281
cpu0_L1I RFO          ACCESS:          0 HIT:          0 MISS:          0
cpu0_L1I PREFETCH     ACCESS:          0 HIT:          0 MISS:          0
cpu0_L1I WRITE        ACCESS:          0 HIT:          0 MISS:          0
cpu0_L1I TRANSLATION  ACCESS:          0 HIT:          0 MISS:          0
cpu0_L1I PREFETCH REQUESTED:          0 ISSUED:          0 USEFUL:          0 USELESS:          0
cpu0_L1I AVERAGE MISS LATENCY: 357.5 cycles
cpu0_L2C TOTAL        ACCESS:    3903748 HIT:    1376327 MISS:    2527421
cpu0_L2C LOAD         ACCESS:    2009354 HIT:      54912 MISS:    1954442
cpu0_L2C RFO          ACCESS:     573484 HIT:      11772 MISS:     561712
cpu0_L2C PREFETCH     ACCESS:          0 HIT:          0 MISS:          0
cpu0_L2C WRITE        ACCESS:     574673 HIT:     574655 MISS:         18
cpu0_L2C TRANSLATION  ACCESS:     746237 HIT:     734988 MISS:      11249
cpu0_L2C PREFETCH REQUESTED:          0 ISSUED:          0 USEFUL:          0 USELESS:          0
cpu0_L2C AVERAGE MISS LATENCY: 658.2 cycles
cpu0_STLB TOTAL        ACCESS:    1982668 HIT:     677174 MISS:    1305494
cpu0_STLB LOAD         ACCESS:    1982668 HIT:     677174 MISS:    1305494
cpu0_STLB RFO          ACCESS:          0 HIT:          0 MISS:          0
cpu0_STLB PREFETCH     ACCESS:          0 HIT:          0 MISS:          0
cpu0_STLB WRITE        ACCESS:          0 HIT:          0 MISS:          0
cpu0_STLB TRANSLATION  ACCESS:          0 HIT:          0 MISS:          0
cpu0_STLB PREFETCH REQUESTED:          0 ISSUED:          0 USEFUL:          0 USELESS:          0
cpu0_STLB AVERAGE MISS LATENCY: 14.19 cycles

DRAM Statistics

Channel 0 RQ ROW_BUFFER_HIT:     146414
  ROW_BUFFER_MISS:    2130629
 AVG DBUS CONGESTED CYCLE: 3.94
WQ ROW_BUFFER_HIT: Channel 0 
  ROW_BUFFER_MISS:     153153
  FULL:     406811
