WARNING: physical memory size is smaller than virtual memory size.

*** ChampSim Multicore Out-of-Order Simulator ***
Warmup Instructions: 50000000
Simulation Instructions: 600000000
Number of CPUs: 1
Page size: 4096

Off-chip DRAM Size: 4 GiB Channels: 1 Width: 64-bit Data Race: 3200 MT/s
Heartbeat CPU 0 instructions: 10000004 cycles: 2777663 heartbeat IPC: 3.6 cumulative IPC: 3.6 (Simulation time: 00 hr 00 min 44 sec)
Heartbeat CPU 0 instructions: 20000001 cycles: 5634805 heartbeat IPC: 3.5 cumulative IPC: 3.549 (Simulation time: 00 hr 01 min 33 sec)
Heartbeat CPU 0 instructions: 30000000 cycles: 8491948 heartbeat IPC: 3.5 cumulative IPC: 3.533 (Simulation time: 00 hr 02 min 25 sec)
Heartbeat CPU 0 instructions: 40000003 cycles: 11120601 heartbeat IPC: 3.804 cumulative IPC: 3.597 (Simulation time: 00 hr 03 min 20 sec)
Heartbeat CPU 0 instructions: 50000003 cycles: 13620601 heartbeat IPC: 4 cumulative IPC: 3.671 (Simulation time: 00 hr 04 min 17 sec)
Warmup finished CPU 0 instructions: 50000003 cycles: 13620602 cumulative IPC: 3.671 (Simulation time: 00 hr 04 min 17 sec)
Warmup complete CPU 0 instructions: 50000003 cycles: 13620602 cumulative IPC: 3.671 (Simulation time: 00 hr 04 min 17 sec)
Heartbeat CPU 0 instructions: 60000002 cycles: 16347845 heartbeat IPC: 3.667 cumulative IPC: 3.667 (Simulation time: 00 hr 05 min 19 sec)
Heartbeat CPU 0 instructions: 70000001 cycles: 19075145 heartbeat IPC: 3.667 cumulative IPC: 3.667 (Simulation time: 00 hr 06 min 25 sec)
Heartbeat CPU 0 instructions: 80000001 cycles: 21802387 heartbeat IPC: 3.667 cumulative IPC: 3.667 (Simulation time: 00 hr 07 min 24 sec)
Heartbeat CPU 0 instructions: 90000000 cycles: 24531302 heartbeat IPC: 3.664 cumulative IPC: 3.666 (Simulation time: 00 hr 08 min 23 sec)
Heartbeat CPU 0 instructions: 100000003 cycles: 27258545 heartbeat IPC: 3.667 cumulative IPC: 3.666 (Simulation time: 00 hr 09 min 20 sec)
Heartbeat CPU 0 instructions: 110000004 cycles: 29985848 heartbeat IPC: 3.667 cumulative IPC: 3.666 (Simulation time: 00 hr 10 min 14 sec)
Heartbeat CPU 0 instructions: 120000003 cycles: 32713118 heartbeat IPC: 3.667 cumulative IPC: 3.666 (Simulation time: 00 hr 11 min 10 sec)
Heartbeat CPU 0 instructions: 130000003 cycles: 35440391 heartbeat IPC: 3.667 cumulative IPC: 3.666 (Simulation time: 00 hr 12 min 06 sec)
Heartbeat CPU 0 instructions: 140000002 cycles: 38168330 heartbeat IPC: 3.666 cumulative IPC: 3.666 (Simulation time: 00 hr 13 min 02 sec)
Heartbeat CPU 0 instructions: 150000000 cycles: 40895573 heartbeat IPC: 3.667 cumulative IPC: 3.666 (Simulation time: 00 hr 13 min 58 sec)
Heartbeat CPU 0 instructions: 160000001 cycles: 43622877 heartbeat IPC: 3.667 cumulative IPC: 3.666 (Simulation time: 00 hr 14 min 52 sec)
Heartbeat CPU 0 instructions: 170000004 cycles: 46350118 heartbeat IPC: 3.667 cumulative IPC: 3.666 (Simulation time: 00 hr 15 min 49 sec)
Heartbeat CPU 0 instructions: 180000000 cycles: 49078547 heartbeat IPC: 3.665 cumulative IPC: 3.666 (Simulation time: 00 hr 16 min 48 sec)
Heartbeat CPU 0 instructions: 190000004 cycles: 51805833 heartbeat IPC: 3.667 cumulative IPC: 3.666 (Simulation time: 00 hr 17 min 48 sec)
Heartbeat CPU 0 instructions: 200000002 cycles: 54533091 heartbeat IPC: 3.667 cumulative IPC: 3.666 (Simulation time: 00 hr 18 min 48 sec)
Heartbeat CPU 0 instructions: 210000003 cycles: 57260394 heartbeat IPC: 3.667 cumulative IPC: 3.666 (Simulation time: 00 hr 19 min 49 sec)
Heartbeat CPU 0 instructions: 220000001 cycles: 59987636 heartbeat IPC: 3.667 cumulative IPC: 3.666 (Simulation time: 00 hr 20 min 52 sec)
Heartbeat CPU 0 instructions: 230000002 cycles: 62715808 heartbeat IPC: 3.665 cumulative IPC: 3.666 (Simulation time: 00 hr 21 min 58 sec)
Heartbeat CPU 0 instructions: 240000003 cycles: 65443050 heartbeat IPC: 3.667 cumulative IPC: 3.666 (Simulation time: 00 hr 23 min 00 sec)
Heartbeat CPU 0 instructions: 250000004 cycles: 68170353 heartbeat IPC: 3.667 cumulative IPC: 3.666 (Simulation time: 00 hr 24 min 03 sec)
Heartbeat CPU 0 instructions: 260000000 cycles: 70897636 heartbeat IPC: 3.667 cumulative IPC: 3.666 (Simulation time: 00 hr 25 min 01 sec)
Heartbeat CPU 0 instructions: 270000003 cycles: 73625756 heartbeat IPC: 3.666 cumulative IPC: 3.666 (Simulation time: 00 hr 26 min 03 sec)
Heartbeat CPU 0 instructions: 280000001 cycles: 76353057 heartbeat IPC: 3.667 cumulative IPC: 3.666 (Simulation time: 00 hr 27 min 02 sec)
Heartbeat CPU 0 instructions: 290000000 cycles: 79080298 heartbeat IPC: 3.667 cumulative IPC: 3.666 (Simulation time: 00 hr 27 min 59 sec)
Heartbeat CPU 0 instructions: 300000001 cycles: 81807601 heartbeat IPC: 3.667 cumulative IPC: 3.666 (Simulation time: 00 hr 28 min 56 sec)
Heartbeat CPU 0 instructions: 310000000 cycles: 84534843 heartbeat IPC: 3.667 cumulative IPC: 3.666 (Simulation time: 00 hr 29 min 55 sec)
Heartbeat CPU 0 instructions: 320000000 cycles: 87262786 heartbeat IPC: 3.666 cumulative IPC: 3.666 (Simulation time: 00 hr 30 min 52 sec)
Heartbeat CPU 0 instructions: 330000001 cycles: 89990082 heartbeat IPC: 3.667 cumulative IPC: 3.666 (Simulation time: 00 hr 31 min 51 sec)
Heartbeat CPU 0 instructions: 340000002 cycles: 92717329 heartbeat IPC: 3.667 cumulative IPC: 3.666 (Simulation time: 00 hr 32 min 52 sec)
Heartbeat CPU 0 instructions: 350000003 cycles: 95444632 heartbeat IPC: 3.667 cumulative IPC: 3.666 (Simulation time: 00 hr 33 min 50 sec)
Heartbeat CPU 0 instructions: 360000001 cycles: 98173099 heartbeat IPC: 3.665 cumulative IPC: 3.666 (Simulation time: 00 hr 34 min 52 sec)
Heartbeat CPU 0 instructions: 370000002 cycles: 100900403 heartbeat IPC: 3.667 cumulative IPC: 3.666 (Simulation time: 00 hr 35 min 51 sec)
Heartbeat CPU 0 instructions: 380000001 cycles: 103627657 heartbeat IPC: 3.667 cumulative IPC: 3.666 (Simulation time: 00 hr 36 min 51 sec)
Heartbeat CPU 0 instructions: 390000004 cycles: 106354946 heartbeat IPC: 3.667 cumulative IPC: 3.666 (Simulation time: 00 hr 37 min 50 sec)
Heartbeat CPU 0 instructions: 400000000 cycles: 109082246 heartbeat IPC: 3.667 cumulative IPC: 3.666 (Simulation time: 00 hr 38 min 52 sec)
Heartbeat CPU 0 instructions: 410000003 cycles: 111810510 heartbeat IPC: 3.665 cumulative IPC: 3.666 (Simulation time: 00 hr 39 min 54 sec)
Heartbeat CPU 0 instructions: 420000003 cycles: 119384046 heartbeat IPC: 1.32 cumulative IPC: 3.498 (Simulation time: 00 hr 41 min 52 sec)
Heartbeat CPU 0 instructions: 430000002 cycles: 138439888 heartbeat IPC: 0.5248 cumulative IPC: 3.044 (Simulation time: 00 hr 46 min 11 sec)
Heartbeat CPU 0 instructions: 440000004 cycles: 157483624 heartbeat IPC: 0.5251 cumulative IPC: 2.711 (Simulation time: 00 hr 50 min 25 sec)
Heartbeat CPU 0 instructions: 450000000 cycles: 176540898 heartbeat IPC: 0.5247 cumulative IPC: 2.455 (Simulation time: 00 hr 54 min 36 sec)
Heartbeat CPU 0 instructions: 460000002 cycles: 195509543 heartbeat IPC: 0.5272 cumulative IPC: 2.254 (Simulation time: 00 hr 58 min 56 sec)
Heartbeat CPU 0 instructions: 470000003 cycles: 214549205 heartbeat IPC: 0.5252 cumulative IPC: 2.09 (Simulation time: 01 hr 04 min 46 sec)
Heartbeat CPU 0 instructions: 480000003 cycles: 233551715 heartbeat IPC: 0.5262 cumulative IPC: 1.955 (Simulation time: 01 hr 12 min 19 sec)
Heartbeat CPU 0 instructions: 490000004 cycles: 252556875 heartbeat IPC: 0.5262 cumulative IPC: 1.841 (Simulation time: 01 hr 20 min 09 sec)
Heartbeat CPU 0 instructions: 500000003 cycles: 271589692 heartbeat IPC: 0.5254 cumulative IPC: 1.744 (Simulation time: 01 hr 28 min 00 sec)
Heartbeat CPU 0 instructions: 510000002 cycles: 290597636 heartbeat IPC: 0.5261 cumulative IPC: 1.661 (Simulation time: 01 hr 34 min 56 sec)
Heartbeat CPU 0 instructions: 520000003 cycles: 309626064 heartbeat IPC: 0.5255 cumulative IPC: 1.588 (Simulation time: 01 hr 43 min 01 sec)
Heartbeat CPU 0 instructions: 530000004 cycles: 328586388 heartbeat IPC: 0.5274 cumulative IPC: 1.524 (Simulation time: 01 hr 51 min 21 sec)
Heartbeat CPU 0 instructions: 540000004 cycles: 347555745 heartbeat IPC: 0.5272 cumulative IPC: 1.467 (Simulation time: 01 hr 59 min 23 sec)
Heartbeat CPU 0 instructions: 550000000 cycles: 366603346 heartbeat IPC: 0.525 cumulative IPC: 1.416 (Simulation time: 02 hr 06 min 02 sec)
Heartbeat CPU 0 instructions: 560000002 cycles: 385620530 heartbeat IPC: 0.5258 cumulative IPC: 1.371 (Simulation time: 02 hr 14 min 59 sec)
Heartbeat CPU 0 instructions: 570000002 cycles: 404646737 heartbeat IPC: 0.5256 cumulative IPC: 1.33 (Simulation time: 02 hr 21 min 44 sec)
Heartbeat CPU 0 instructions: 580000004 cycles: 423688967 heartbeat IPC: 0.5251 cumulative IPC: 1.292 (Simulation time: 02 hr 26 min 15 sec)
Heartbeat CPU 0 instructions: 590000000 cycles: 442722016 heartbeat IPC: 0.5254 cumulative IPC: 1.258 (Simulation time: 02 hr 30 min 35 sec)
*** Reached end of trace: (0, "traces/l1l2l3cache.champsimtrace")
Heartbeat CPU 0 instructions: 600000000 cycles: 461742986 heartbeat IPC: 0.5257 cumulative IPC: 1.227 (Simulation time: 02 hr 34 min 49 sec)
Heartbeat CPU 0 instructions: 610000001 cycles: 470550615 heartbeat IPC: 1.135 cumulative IPC: 1.226 (Simulation time: 02 hr 37 min 03 sec)
Heartbeat CPU 0 instructions: 620000002 cycles: 485987479 heartbeat IPC: 0.6478 cumulative IPC: 1.207 (Simulation time: 02 hr 40 min 34 sec)
Heartbeat CPU 0 instructions: 630000000 cycles: 501432215 heartbeat IPC: 0.6475 cumulative IPC: 1.189 (Simulation time: 02 hr 44 min 16 sec)
Heartbeat CPU 0 instructions: 640000000 cycles: 508733349 heartbeat IPC: 1.37 cumulative IPC: 1.192 (Simulation time: 02 hr 46 min 13 sec)
Heartbeat CPU 0 instructions: 650000003 cycles: 511460621 heartbeat IPC: 3.667 cumulative IPC: 1.205 (Simulation time: 02 hr 47 min 13 sec)
Simulation finished CPU 0 instructions: 600000000 cycles: 497840020 cumulative IPC: 1.205 (Simulation time: 02 hr 47 min 13 sec)
Simulation complete CPU 0 instructions: 600000000 cycles: 497840020 cumulative IPC: 1.205 (Simulation time: 02 hr 47 min 13 sec)

ChampSim completed all CPUs

=== Simulation ===
CPU 0 runs traces/l1l2l3cache.champsimtrace
Region of Interest Statistics

CPU 0 cumulative IPC: 1.205 instructions: 600000000 cycles: 497840020
CPU 0 Branch Prediction Accuracy: 99.34% MPKI: 1.413 Average ROB Occupancy at Mispredict: 143.3
Branch type MPKI
BRANCH_DIRECT_JUMP: 8.5e-05
BRANCH_INDIRECT: 0.000237
BRANCH_CONDITIONAL: 1.41
BRANCH_DIRECT_CALL: 5e-06
BRANCH_INDIRECT_CALL: 4.67e-05
BRANCH_RETURN: 3.67e-05

LLC TOTAL        ACCESS:    3089470 HIT:     244804 MISS:    2844666
LLC LOAD         ACCESS:    1954445 HIT:     156471 MISS:    1797974
LLC RFO          ACCESS:     561712 HIT:      43510 MISS:     518202
LLC PREFETCH     ACCESS:          0 HIT:          0 MISS:          0
LLC WRITE        ACCESS:     562067 HIT:      44294 MISS:     517773
LLC TRANSLATION  ACCESS:      11246 HIT:        529 MISS:      10717
LLC PREFETCH REQUESTED:          0 ISSUED:          0 USEFUL:          0 USELESS:          0
LLC AVERAGE MISS LATENCY: 572 cycles
cpu0_DTLB TOTAL        ACCESS:  131750718 HIT:  129735836 MISS:    2014882
cpu0_DTLB LOAD         ACCESS:  131750718 HIT:  129735836 MISS:    2014882
cpu0_DTLB RFO          ACCESS:          0 HIT:          0 MISS:          0
cpu0_DTLB PREFETCH     ACCESS:          0 HIT:          0 MISS:          0
cpu0_DTLB WRITE        ACCESS:          0 HIT:          0 MISS:          0
cpu0_DTLB TRANSLATION  ACCESS:          0 HIT:          0 MISS:          0
cpu0_DTLB PREFETCH REQUESTED:          0 ISSUED:          0 USEFUL:          0 USELESS:          0
cpu0_DTLB AVERAGE MISS LATENCY: 20.22 cycles
cpu0_ITLB TOTAL        ACCESS:       4975 HIT:       4752 MISS:        223
cpu0_ITLB LOAD         ACCESS:       4975 HIT:       4752 MISS:        223
cpu0_ITLB RFO          ACCESS:          0 HIT:          0 MISS:          0
cpu0_ITLB PREFETCH     ACCESS:          0 HIT:          0 MISS:          0
cpu0_ITLB WRITE        ACCESS:          0 HIT:          0 MISS:          0
cpu0_ITLB TRANSLATION  ACCESS:          0 HIT:          0 MISS:          0
cpu0_ITLB PREFETCH REQUESTED:          0 ISSUED:          0 USEFUL:          0 USELESS:          0
cpu0_ITLB AVERAGE MISS LATENCY: 78.59 cycles
cpu0_L1D TOTAL        ACCESS:  179300434 HIT:  168035511 MISS:   11264923
cpu0_L1D LOAD         ACCESS:   70977890 HIT:   68938414 MISS:    2039476
cpu0_L1D RFO          ACCESS:          0 HIT:          0 MISS:          0
cpu0_L1D PREFETCH     ACCESS:          0 HIT:          0 MISS:          0
cpu0_L1D WRITE        ACCESS:  107017052 HIT:   98537829 MISS:    8479223
cpu0_L1D TRANSLATION  ACCESS:    1305492 HIT:     559268 MISS:     746224
cpu0_L1D PREFETCH REQUESTED:          0 ISSUED:          0 USEFUL:          0 USELESS:          0
cpu0_L1D AVERAGE MISS LATENCY: 144.1 cycles
cpu0_L1I TOTAL        ACCESS:       5678 HIT:       3422 MISS:       2256
cpu0_L1I LOAD         ACCESS:       5678 HIT:       3422 MISS:       2256
cpu0_L1I RFO          ACCESS:          0 HIT:          0 MISS:          0
cpu0_L1I PREFETCH     ACCESS:          0 HIT:          0 MISS:          0
cpu0_L1I WRITE        ACCESS:          0 HIT:          0 MISS:          0
cpu0_L1I TRANSLATION  ACCESS:          0 HIT:          0 MISS:          0
cpu0_L1I PREFETCH REQUESTED:          0 ISSUED:          0 USEFUL:          0 USELESS:          0
cpu0_L1I AVERAGE MISS LATENCY: 125.3 cycles
cpu0_L2C TOTAL        ACCESS:    3903785 HIT:    1376364 MISS:    2527421
cpu0_L2C LOAD         ACCESS:    2009351 HIT:      54906 MISS:    1954445
cpu0_L2C RFO          ACCESS:     573548 HIT:      11836 MISS:     561712
cpu0_L2C PREFETCH     ACCESS:          0 HIT:          0 MISS:          0
cpu0_L2C WRITE        ACCESS:     574684 HIT:     574666 MISS:         18
cpu0_L2C TRANSLATION  ACCESS:     746202 HIT:     734956 MISS:      11246
cpu0_L2C PREFETCH REQUESTED:          0 ISSUED:          0 USEFUL:          0 USELESS:          0
cpu0_L2C AVERAGE MISS LATENCY: 664.7 cycles
cpu0_STLB TOTAL        ACCESS:    1982662 HIT:     677178 MISS:    1305484
cpu0_STLB LOAD         ACCESS:    1982662 HIT:     677178 MISS:    1305484
cpu0_STLB RFO          ACCESS:          0 HIT:          0 MISS:          0
cpu0_STLB PREFETCH     ACCESS:          0 HIT:          0 MISS:          0
cpu0_STLB WRITE        ACCESS:          0 HIT:          0 MISS:          0
cpu0_STLB TRANSLATION  ACCESS:          0 HIT:          0 MISS:          0
cpu0_STLB PREFETCH REQUESTED:          0 ISSUED:          0 USEFUL:          0 USELESS:          0
cpu0_STLB AVERAGE MISS LATENCY: 18.12 cycles

DRAM Statistics

Channel 0 RQ ROW_BUFFER_HIT:      87765
  ROW_BUFFER_MISS:    2238899
 AVG DBUS CONGESTED CYCLE: 3.945
WQ ROW_BUFFER_HIT: Channel 0 
  ROW_BUFFER_MISS:     176831
  FULL:     341392
