WARNING: physical memory size is smaller than virtual memory size.

*** ChampSim Multicore Out-of-Order Simulator ***
Warmup Instructions: 50000000
Simulation Instructions: 600000000
Number of CPUs: 1
Page size: 4096

Off-chip DRAM Size: 4 GiB Channels: 1 Width: 64-bit Data Race: 3200 MT/s
Heartbeat CPU 0 instructions: 10000000 cycles: 2565785 heartbeat IPC: 3.897 cumulative IPC: 3.897 (Simulation time: 00 hr 00 min 34 sec)
Heartbeat CPU 0 instructions: 20000000 cycles: 5131274 heartbeat IPC: 3.898 cumulative IPC: 3.898 (Simulation time: 00 hr 01 min 07 sec)
Heartbeat CPU 0 instructions: 30000000 cycles: 7631274 heartbeat IPC: 4 cumulative IPC: 3.931 (Simulation time: 00 hr 01 min 37 sec)
Heartbeat CPU 0 instructions: 40000000 cycles: 10131274 heartbeat IPC: 4 cumulative IPC: 3.948 (Simulation time: 00 hr 02 min 10 sec)
Heartbeat CPU 0 instructions: 50000000 cycles: 12631274 heartbeat IPC: 4 cumulative IPC: 3.958 (Simulation time: 00 hr 02 min 40 sec)
Warmup finished CPU 0 instructions: 50000000 cycles: 12631275 cumulative IPC: 3.958 (Simulation time: 00 hr 02 min 40 sec)
Warmup complete CPU 0 instructions: 50000000 cycles: 12631275 cumulative IPC: 3.958 (Simulation time: 00 hr 02 min 40 sec)
Heartbeat CPU 0 instructions: 60000000 cycles: 16058852 heartbeat IPC: 2.918 cumulative IPC: 2.918 (Simulation time: 00 hr 03 min 20 sec)
Heartbeat CPU 0 instructions: 70000000 cycles: 19488286 heartbeat IPC: 2.916 cumulative IPC: 2.917 (Simulation time: 00 hr 04 min 00 sec)
Heartbeat CPU 0 instructions: 80000004 cycles: 22914704 heartbeat IPC: 2.919 cumulative IPC: 2.917 (Simulation time: 00 hr 04 min 42 sec)
Heartbeat CPU 0 instructions: 90000000 cycles: 26342392 heartbeat IPC: 2.917 cumulative IPC: 2.917 (Simulation time: 00 hr 05 min 23 sec)
Heartbeat CPU 0 instructions: 100000003 cycles: 29773619 heartbeat IPC: 2.914 cumulative IPC: 2.917 (Simulation time: 00 hr 06 min 04 sec)
Heartbeat CPU 0 instructions: 110000000 cycles: 33199684 heartbeat IPC: 2.919 cumulative IPC: 2.917 (Simulation time: 00 hr 06 min 44 sec)
Heartbeat CPU 0 instructions: 120000001 cycles: 36624207 heartbeat IPC: 2.92 cumulative IPC: 2.918 (Simulation time: 00 hr 07 min 23 sec)
Heartbeat CPU 0 instructions: 130000001 cycles: 40050788 heartbeat IPC: 2.918 cumulative IPC: 2.918 (Simulation time: 00 hr 08 min 01 sec)
Heartbeat CPU 0 instructions: 140000002 cycles: 43477136 heartbeat IPC: 2.919 cumulative IPC: 2.918 (Simulation time: 00 hr 08 min 40 sec)
Heartbeat CPU 0 instructions: 150000000 cycles: 46902215 heartbeat IPC: 2.92 cumulative IPC: 2.918 (Simulation time: 00 hr 09 min 19 sec)
Heartbeat CPU 0 instructions: 160000002 cycles: 50328722 heartbeat IPC: 2.918 cumulative IPC: 2.918 (Simulation time: 00 hr 09 min 58 sec)
Heartbeat CPU 0 instructions: 170000000 cycles: 53756209 heartbeat IPC: 2.918 cumulative IPC: 2.918 (Simulation time: 00 hr 10 min 37 sec)
Heartbeat CPU 0 instructions: 180000004 cycles: 57182235 heartbeat IPC: 2.919 cumulative IPC: 2.918 (Simulation time: 00 hr 11 min 15 sec)
Heartbeat CPU 0 instructions: 190000001 cycles: 60608942 heartbeat IPC: 2.918 cumulative IPC: 2.918 (Simulation time: 00 hr 11 min 54 sec)
Heartbeat CPU 0 instructions: 200000001 cycles: 64034698 heartbeat IPC: 2.919 cumulative IPC: 2.918 (Simulation time: 00 hr 12 min 32 sec)
Heartbeat CPU 0 instructions: 210000004 cycles: 67460593 heartbeat IPC: 2.919 cumulative IPC: 2.918 (Simulation time: 00 hr 13 min 09 sec)
Heartbeat CPU 0 instructions: 220000002 cycles: 70888099 heartbeat IPC: 2.918 cumulative IPC: 2.918 (Simulation time: 00 hr 13 min 46 sec)
Heartbeat CPU 0 instructions: 230000002 cycles: 74059451 heartbeat IPC: 3.153 cumulative IPC: 2.93 (Simulation time: 00 hr 14 min 26 sec)
Heartbeat CPU 0 instructions: 240000003 cycles: 76797698 heartbeat IPC: 3.652 cumulative IPC: 2.961 (Simulation time: 00 hr 15 min 05 sec)
Heartbeat CPU 0 instructions: 250000003 cycles: 80231373 heartbeat IPC: 2.912 cumulative IPC: 2.959 (Simulation time: 00 hr 15 min 42 sec)
Heartbeat CPU 0 instructions: 260000000 cycles: 83658111 heartbeat IPC: 2.918 cumulative IPC: 2.957 (Simulation time: 00 hr 16 min 19 sec)
Heartbeat CPU 0 instructions: 270000004 cycles: 87084106 heartbeat IPC: 2.919 cumulative IPC: 2.955 (Simulation time: 00 hr 16 min 57 sec)
Heartbeat CPU 0 instructions: 280000000 cycles: 90511933 heartbeat IPC: 2.917 cumulative IPC: 2.953 (Simulation time: 00 hr 17 min 35 sec)
Heartbeat CPU 0 instructions: 290000002 cycles: 93940068 heartbeat IPC: 2.917 cumulative IPC: 2.952 (Simulation time: 00 hr 18 min 13 sec)
Heartbeat CPU 0 instructions: 300000004 cycles: 97363634 heartbeat IPC: 2.921 cumulative IPC: 2.95 (Simulation time: 00 hr 18 min 51 sec)
Heartbeat CPU 0 instructions: 310000002 cycles: 100791757 heartbeat IPC: 2.917 cumulative IPC: 2.949 (Simulation time: 00 hr 19 min 29 sec)
Heartbeat CPU 0 instructions: 320000000 cycles: 104219567 heartbeat IPC: 2.917 cumulative IPC: 2.948 (Simulation time: 00 hr 20 min 06 sec)
Heartbeat CPU 0 instructions: 330000004 cycles: 107646316 heartbeat IPC: 2.918 cumulative IPC: 2.947 (Simulation time: 00 hr 20 min 44 sec)
Heartbeat CPU 0 instructions: 340000000 cycles: 111073573 heartbeat IPC: 2.918 cumulative IPC: 2.946 (Simulation time: 00 hr 21 min 22 sec)
Heartbeat CPU 0 instructions: 350000003 cycles: 114502494 heartbeat IPC: 2.916 cumulative IPC: 2.945 (Simulation time: 00 hr 21 min 59 sec)
Heartbeat CPU 0 instructions: 360000003 cycles: 117930142 heartbeat IPC: 2.917 cumulative IPC: 2.944 (Simulation time: 00 hr 22 min 36 sec)
Heartbeat CPU 0 instructions: 370000004 cycles: 121356534 heartbeat IPC: 2.919 cumulative IPC: 2.943 (Simulation time: 00 hr 23 min 13 sec)
Heartbeat CPU 0 instructions: 380000003 cycles: 124782068 heartbeat IPC: 2.919 cumulative IPC: 2.942 (Simulation time: 00 hr 23 min 49 sec)
Heartbeat CPU 0 instructions: 390000000 cycles: 128203047 heartbeat IPC: 2.923 cumulative IPC: 2.942 (Simulation time: 00 hr 24 min 26 sec)
Heartbeat CPU 0 instructions: 400000002 cycles: 131630427 heartbeat IPC: 2.918 cumulative IPC: 2.941 (Simulation time: 00 hr 25 min 03 sec)
Heartbeat CPU 0 instructions: 410000003 cycles: 135057923 heartbeat IPC: 2.918 cumulative IPC: 2.941 (Simulation time: 00 hr 25 min 40 sec)
Heartbeat CPU 0 instructions: 420000001 cycles: 138485751 heartbeat IPC: 2.917 cumulative IPC: 2.94 (Simulation time: 00 hr 26 min 17 sec)
Heartbeat CPU 0 instructions: 430000001 cycles: 141914501 heartbeat IPC: 2.917 cumulative IPC: 2.939 (Simulation time: 00 hr 26 min 53 sec)
Heartbeat CPU 0 instructions: 440000002 cycles: 145339061 heartbeat IPC: 2.92 cumulative IPC: 2.939 (Simulation time: 00 hr 27 min 30 sec)
Heartbeat CPU 0 instructions: 450000001 cycles: 148109758 heartbeat IPC: 3.609 cumulative IPC: 2.952 (Simulation time: 00 hr 28 min 05 sec)
Heartbeat CPU 0 instructions: 460000002 cycles: 150843076 heartbeat IPC: 3.659 cumulative IPC: 2.966 (Simulation time: 00 hr 28 min 43 sec)
Heartbeat CPU 0 instructions: 470000004 cycles: 154266386 heartbeat IPC: 2.921 cumulative IPC: 2.965 (Simulation time: 00 hr 29 min 19 sec)
Heartbeat CPU 0 instructions: 480000000 cycles: 157694613 heartbeat IPC: 2.917 cumulative IPC: 2.964 (Simulation time: 00 hr 29 min 54 sec)
Heartbeat CPU 0 instructions: 490000000 cycles: 161119988 heartbeat IPC: 2.919 cumulative IPC: 2.963 (Simulation time: 00 hr 30 min 30 sec)
Heartbeat CPU 0 instructions: 500000002 cycles: 164546750 heartbeat IPC: 2.918 cumulative IPC: 2.962 (Simulation time: 00 hr 31 min 05 sec)
Heartbeat CPU 0 instructions: 510000001 cycles: 167975683 heartbeat IPC: 2.916 cumulative IPC: 2.961 (Simulation time: 00 hr 31 min 40 sec)
Heartbeat CPU 0 instructions: 520000003 cycles: 171401014 heartbeat IPC: 2.919 cumulative IPC: 2.96 (Simulation time: 00 hr 32 min 14 sec)
Heartbeat CPU 0 instructions: 530000002 cycles: 174824884 heartbeat IPC: 2.921 cumulative IPC: 2.959 (Simulation time: 00 hr 32 min 49 sec)
Heartbeat CPU 0 instructions: 540000000 cycles: 178253583 heartbeat IPC: 2.917 cumulative IPC: 2.959 (Simulation time: 00 hr 33 min 23 sec)
Heartbeat CPU 0 instructions: 550000000 cycles: 181679824 heartbeat IPC: 2.919 cumulative IPC: 2.958 (Simulation time: 00 hr 33 min 56 sec)
Heartbeat CPU 0 instructions: 560000001 cycles: 185104573 heartbeat IPC: 2.92 cumulative IPC: 2.957 (Simulation time: 00 hr 34 min 29 sec)
Heartbeat CPU 0 instructions: 570000001 cycles: 188530055 heartbeat IPC: 2.919 cumulative IPC: 2.956 (Simulation time: 00 hr 35 min 10 sec)
Heartbeat CPU 0 instructions: 580000000 cycles: 191959844 heartbeat IPC: 2.916 cumulative IPC: 2.955 (Simulation time: 00 hr 35 min 52 sec)
Heartbeat CPU 0 instructions: 590000003 cycles: 195386229 heartbeat IPC: 2.919 cumulative IPC: 2.955 (Simulation time: 00 hr 36 min 34 sec)
*** Reached end of trace: (0, "traces/l1l2cache.champsimtrace")
Heartbeat CPU 0 instructions: 600000001 cycles: 198814365 heartbeat IPC: 2.917 cumulative IPC: 2.954 (Simulation time: 00 hr 37 min 15 sec)
Heartbeat CPU 0 instructions: 610000000 cycles: 206716908 heartbeat IPC: 1.265 cumulative IPC: 2.885 (Simulation time: 00 hr 38 min 24 sec)
Heartbeat CPU 0 instructions: 620000004 cycles: 209469692 heartbeat IPC: 3.633 cumulative IPC: 2.896 (Simulation time: 00 hr 38 min 57 sec)
Heartbeat CPU 0 instructions: 630000004 cycles: 212892768 heartbeat IPC: 2.921 cumulative IPC: 2.896 (Simulation time: 00 hr 39 min 25 sec)
Heartbeat CPU 0 instructions: 640000000 cycles: 216317696 heartbeat IPC: 2.92 cumulative IPC: 2.897 (Simulation time: 00 hr 39 min 52 sec)
Heartbeat CPU 0 instructions: 650000004 cycles: 219747100 heartbeat IPC: 2.916 cumulative IPC: 2.897 (Simulation time: 00 hr 40 min 19 sec)
Simulation finished CPU 0 instructions: 600000004 cycles: 207115826 cumulative IPC: 2.897 (Simulation time: 00 hr 40 min 19 sec)
Simulation complete CPU 0 instructions: 600000004 cycles: 207115826 cumulative IPC: 2.897 (Simulation time: 00 hr 40 min 19 sec)

ChampSim completed all CPUs

=== Simulation ===
CPU 0 runs traces/l1l2cache.champsimtrace
Region of Interest Statistics

CPU 0 cumulative IPC: 2.897 instructions: 600000004 cycles: 207115826
CPU 0 Branch Prediction Accuracy: 93.04% MPKI: 5.913 Average ROB Occupancy at Mispredict: 67.88
Branch type MPKI
BRANCH_DIRECT_JUMP: 9.5e-05
BRANCH_INDIRECT: 0.000282
BRANCH_CONDITIONAL: 5.91
BRANCH_DIRECT_CALL: 3.33e-06
BRANCH_INDIRECT_CALL: 4.83e-05
BRANCH_RETURN: 3.33e-05

LLC TOTAL        ACCESS:     259670 HIT:     222032 MISS:      37638
LLC LOAD         ACCESS:      59445 HIT:      49692 MISS:       9753
LLC RFO          ACCESS:      99913 HIT:      73007 MISS:      26906
LLC PREFETCH     ACCESS:          0 HIT:          0 MISS:          0
LLC WRITE        ACCESS:     100307 HIT:      99333 MISS:        974
LLC TRANSLATION  ACCESS:          5 HIT:          0 MISS:          5
LLC PREFETCH REQUESTED:          0 ISSUED:          0 USEFUL:          0 USELESS:          0
LLC AVERAGE MISS LATENCY: 738.3 cycles
cpu0_DTLB TOTAL        ACCESS:   82359619 HIT:   82348758 MISS:      10861
cpu0_DTLB LOAD         ACCESS:   82359619 HIT:   82348758 MISS:      10861
cpu0_DTLB RFO          ACCESS:          0 HIT:          0 MISS:          0
cpu0_DTLB PREFETCH     ACCESS:          0 HIT:          0 MISS:          0
cpu0_DTLB WRITE        ACCESS:          0 HIT:          0 MISS:          0
cpu0_DTLB TRANSLATION  ACCESS:          0 HIT:          0 MISS:          0
cpu0_DTLB PREFETCH REQUESTED:          0 ISSUED:          0 USEFUL:          0 USELESS:          0
cpu0_DTLB AVERAGE MISS LATENCY: 5.863 cycles
cpu0_ITLB TOTAL        ACCESS:       5576 HIT:       5359 MISS:        217
cpu0_ITLB LOAD         ACCESS:       5576 HIT:       5359 MISS:        217
cpu0_ITLB RFO          ACCESS:          0 HIT:          0 MISS:          0
cpu0_ITLB PREFETCH     ACCESS:          0 HIT:          0 MISS:          0
cpu0_ITLB WRITE        ACCESS:          0 HIT:          0 MISS:          0
cpu0_ITLB TRANSLATION  ACCESS:          0 HIT:          0 MISS:          0
cpu0_ITLB PREFETCH REQUESTED:          0 ISSUED:          0 USEFUL:          0 USELESS:          0
cpu0_ITLB AVERAGE MISS LATENCY: 6.498 cycles
cpu0_L1D TOTAL        ACCESS:  104623556 HIT:  103231595 MISS:    1391961
cpu0_L1D LOAD         ACCESS:   45364524 HIT:   45012979 MISS:     351545
cpu0_L1D RFO          ACCESS:          0 HIT:          0 MISS:          0
cpu0_L1D PREFETCH     ACCESS:          0 HIT:          0 MISS:          0
cpu0_L1D WRITE        ACCESS:   59258774 HIT:   58218363 MISS:    1040411
cpu0_L1D TRANSLATION  ACCESS:        258 HIT:        253 MISS:          5
cpu0_L1D PREFETCH REQUESTED:          0 ISSUED:          0 USEFUL:          0 USELESS:          0
cpu0_L1D AVERAGE MISS LATENCY: 18.92 cycles
cpu0_L1I TOTAL        ACCESS:       6338 HIT:       4053 MISS:       2285
cpu0_L1I LOAD         ACCESS:       6338 HIT:       4053 MISS:       2285
cpu0_L1I RFO          ACCESS:          0 HIT:          0 MISS:          0
cpu0_L1I PREFETCH     ACCESS:          0 HIT:          0 MISS:          0
cpu0_L1I WRITE        ACCESS:          0 HIT:          0 MISS:          0
cpu0_L1I TRANSLATION  ACCESS:          0 HIT:          0 MISS:          0
cpu0_L1I PREFETCH REQUESTED:          0 ISSUED:          0 USEFUL:          0 USELESS:          0
cpu0_L1I AVERAGE MISS LATENCY: 647.3 cycles
cpu0_L2C TOTAL        ACCESS:     265731 HIT:     106344 MISS:     159387
cpu0_L2C LOAD         ACCESS:      63733 HIT:       4288 MISS:      59445
cpu0_L2C RFO          ACCESS:     100730 HIT:        817 MISS:      99913
cpu0_L2C PREFETCH     ACCESS:          0 HIT:          0 MISS:          0
cpu0_L2C WRITE        ACCESS:     101263 HIT:     101239 MISS:         24
cpu0_L2C TRANSLATION  ACCESS:          5 HIT:          0 MISS:          5
cpu0_L2C PREFETCH REQUESTED:          0 ISSUED:          0 USEFUL:          0 USELESS:          0
cpu0_L2C AVERAGE MISS LATENCY: 194.6 cycles
cpu0_STLB TOTAL        ACCESS:       3913 HIT:       3656 MISS:        257
cpu0_STLB LOAD         ACCESS:       3913 HIT:       3656 MISS:        257
cpu0_STLB RFO          ACCESS:          0 HIT:          0 MISS:          0
cpu0_STLB PREFETCH     ACCESS:          0 HIT:          0 MISS:          0
cpu0_STLB WRITE        ACCESS:          0 HIT:          0 MISS:          0
cpu0_STLB TRANSLATION  ACCESS:          0 HIT:          0 MISS:          0
cpu0_STLB PREFETCH REQUESTED:          0 ISSUED:          0 USEFUL:          0 USELESS:          0
cpu0_STLB AVERAGE MISS LATENCY: 218.5 cycles

DRAM Statistics

Channel 0 RQ ROW_BUFFER_HIT:      19893
  ROW_BUFFER_MISS:      16771
 AVG DBUS CONGESTED CYCLE: 3.965
WQ ROW_BUFFER_HIT: Channel 0 
  ROW_BUFFER_MISS:       1432
  FULL:      14308
