WARNING: physical memory size is smaller than virtual memory size.

*** ChampSim Multicore Out-of-Order Simulator ***
Warmup Instructions: 50000000
Simulation Instructions: 600000000
Number of CPUs: 1
Page size: 4096

Off-chip DRAM Size: 4 GiB Channels: 1 Width: 64-bit Data Race: 3200 MT/s
Heartbeat CPU 0 instructions: 10000004 cycles: 2777663 heartbeat IPC: 3.6 cumulative IPC: 3.6 (Simulation time: 00 hr 01 min 02 sec)
Heartbeat CPU 0 instructions: 20000001 cycles: 5634805 heartbeat IPC: 3.5 cumulative IPC: 3.549 (Simulation time: 00 hr 02 min 01 sec)
Heartbeat CPU 0 instructions: 30000000 cycles: 8491948 heartbeat IPC: 3.5 cumulative IPC: 3.533 (Simulation time: 00 hr 02 min 57 sec)
Heartbeat CPU 0 instructions: 40000003 cycles: 11120601 heartbeat IPC: 3.804 cumulative IPC: 3.597 (Simulation time: 00 hr 03 min 51 sec)
Heartbeat CPU 0 instructions: 50000003 cycles: 13620601 heartbeat IPC: 4 cumulative IPC: 3.671 (Simulation time: 00 hr 04 min 47 sec)
Warmup finished CPU 0 instructions: 50000003 cycles: 13620602 cumulative IPC: 3.671 (Simulation time: 00 hr 04 min 47 sec)
Warmup complete CPU 0 instructions: 50000003 cycles: 13620602 cumulative IPC: 3.671 (Simulation time: 00 hr 04 min 47 sec)
Heartbeat CPU 0 instructions: 60000002 cycles: 16295256 heartbeat IPC: 3.739 cumulative IPC: 3.739 (Simulation time: 00 hr 05 min 45 sec)
Heartbeat CPU 0 instructions: 70000001 cycles: 18969955 heartbeat IPC: 3.739 cumulative IPC: 3.739 (Simulation time: 00 hr 06 min 53 sec)
Heartbeat CPU 0 instructions: 80000000 cycles: 21644609 heartbeat IPC: 3.739 cumulative IPC: 3.739 (Simulation time: 00 hr 08 min 25 sec)
Heartbeat CPU 0 instructions: 90000003 cycles: 24319671 heartbeat IPC: 3.738 cumulative IPC: 3.739 (Simulation time: 00 hr 10 min 13 sec)
Heartbeat CPU 0 instructions: 100000003 cycles: 26994326 heartbeat IPC: 3.739 cumulative IPC: 3.739 (Simulation time: 00 hr 12 min 32 sec)
Heartbeat CPU 0 instructions: 110000004 cycles: 29669027 heartbeat IPC: 3.739 cumulative IPC: 3.739 (Simulation time: 00 hr 14 min 27 sec)
Heartbeat CPU 0 instructions: 120000003 cycles: 32343710 heartbeat IPC: 3.739 cumulative IPC: 3.739 (Simulation time: 00 hr 16 min 20 sec)
Heartbeat CPU 0 instructions: 130000002 cycles: 35018380 heartbeat IPC: 3.739 cumulative IPC: 3.739 (Simulation time: 00 hr 18 min 13 sec)
Heartbeat CPU 0 instructions: 140000002 cycles: 37693455 heartbeat IPC: 3.738 cumulative IPC: 3.739 (Simulation time: 00 hr 20 min 19 sec)
Heartbeat CPU 0 instructions: 150000000 cycles: 40368110 heartbeat IPC: 3.739 cumulative IPC: 3.739 (Simulation time: 00 hr 23 min 08 sec)
Heartbeat CPU 0 instructions: 160000001 cycles: 43042811 heartbeat IPC: 3.739 cumulative IPC: 3.739 (Simulation time: 00 hr 25 min 40 sec)
Heartbeat CPU 0 instructions: 170000004 cycles: 45717465 heartbeat IPC: 3.739 cumulative IPC: 3.739 (Simulation time: 00 hr 27 min 57 sec)
Heartbeat CPU 0 instructions: 180000000 cycles: 48392545 heartbeat IPC: 3.738 cumulative IPC: 3.739 (Simulation time: 00 hr 30 min 05 sec)
Heartbeat CPU 0 instructions: 190000004 cycles: 51067244 heartbeat IPC: 3.739 cumulative IPC: 3.739 (Simulation time: 00 hr 32 min 07 sec)
Heartbeat CPU 0 instructions: 200000002 cycles: 53741901 heartbeat IPC: 3.739 cumulative IPC: 3.739 (Simulation time: 00 hr 34 min 44 sec)
Heartbeat CPU 0 instructions: 210000003 cycles: 56416602 heartbeat IPC: 3.739 cumulative IPC: 3.739 (Simulation time: 00 hr 37 min 15 sec)
Heartbeat CPU 0 instructions: 220000001 cycles: 59091255 heartbeat IPC: 3.739 cumulative IPC: 3.739 (Simulation time: 00 hr 39 min 21 sec)
Heartbeat CPU 0 instructions: 230000002 cycles: 61767067 heartbeat IPC: 3.737 cumulative IPC: 3.739 (Simulation time: 00 hr 41 min 40 sec)
Heartbeat CPU 0 instructions: 240000003 cycles: 64441721 heartbeat IPC: 3.739 cumulative IPC: 3.739 (Simulation time: 00 hr 44 min 24 sec)
Heartbeat CPU 0 instructions: 250000004 cycles: 67116423 heartbeat IPC: 3.739 cumulative IPC: 3.739 (Simulation time: 00 hr 46 min 47 sec)
Heartbeat CPU 0 instructions: 260000000 cycles: 69791119 heartbeat IPC: 3.739 cumulative IPC: 3.739 (Simulation time: 00 hr 49 min 12 sec)
Heartbeat CPU 0 instructions: 270000003 cycles: 72466961 heartbeat IPC: 3.737 cumulative IPC: 3.739 (Simulation time: 00 hr 51 min 46 sec)
Heartbeat CPU 0 instructions: 280000001 cycles: 75141660 heartbeat IPC: 3.739 cumulative IPC: 3.739 (Simulation time: 00 hr 54 min 11 sec)
Heartbeat CPU 0 instructions: 290000000 cycles: 77816314 heartbeat IPC: 3.739 cumulative IPC: 3.739 (Simulation time: 00 hr 56 min 18 sec)
Heartbeat CPU 0 instructions: 300000001 cycles: 80491016 heartbeat IPC: 3.739 cumulative IPC: 3.739 (Simulation time: 00 hr 58 min 29 sec)
Heartbeat CPU 0 instructions: 310000000 cycles: 83165670 heartbeat IPC: 3.739 cumulative IPC: 3.739 (Simulation time: 01 hr 01 min 23 sec)
Heartbeat CPU 0 instructions: 320000000 cycles: 85841233 heartbeat IPC: 3.738 cumulative IPC: 3.739 (Simulation time: 01 hr 03 min 51 sec)
Heartbeat CPU 0 instructions: 330000002 cycles: 88515931 heartbeat IPC: 3.739 cumulative IPC: 3.739 (Simulation time: 01 hr 06 min 06 sec)
Heartbeat CPU 0 instructions: 340000002 cycles: 91190587 heartbeat IPC: 3.739 cumulative IPC: 3.739 (Simulation time: 01 hr 08 min 10 sec)
Heartbeat CPU 0 instructions: 350000003 cycles: 93865289 heartbeat IPC: 3.739 cumulative IPC: 3.739 (Simulation time: 01 hr 10 min 06 sec)
Heartbeat CPU 0 instructions: 360000001 cycles: 96540818 heartbeat IPC: 3.738 cumulative IPC: 3.739 (Simulation time: 01 hr 12 min 32 sec)
Heartbeat CPU 0 instructions: 370000002 cycles: 99215519 heartbeat IPC: 3.739 cumulative IPC: 3.739 (Simulation time: 01 hr 15 min 21 sec)
Heartbeat CPU 0 instructions: 380000001 cycles: 101890186 heartbeat IPC: 3.739 cumulative IPC: 3.739 (Simulation time: 01 hr 17 min 38 sec)
Heartbeat CPU 0 instructions: 390000004 cycles: 104564873 heartbeat IPC: 3.739 cumulative IPC: 3.739 (Simulation time: 01 hr 19 min 33 sec)
Heartbeat CPU 0 instructions: 400000000 cycles: 107239571 heartbeat IPC: 3.739 cumulative IPC: 3.739 (Simulation time: 01 hr 21 min 40 sec)
Heartbeat CPU 0 instructions: 410000003 cycles: 109915490 heartbeat IPC: 3.737 cumulative IPC: 3.739 (Simulation time: 01 hr 23 min 42 sec)
Heartbeat CPU 0 instructions: 420000003 cycles: 117430411 heartbeat IPC: 1.331 cumulative IPC: 3.564 (Simulation time: 01 hr 28 min 56 sec)
Heartbeat CPU 0 instructions: 430000002 cycles: 136477558 heartbeat IPC: 0.525 cumulative IPC: 3.093 (Simulation time: 01 hr 38 min 56 sec)
Heartbeat CPU 0 instructions: 440000004 cycles: 155510089 heartbeat IPC: 0.5254 cumulative IPC: 2.749 (Simulation time: 01 hr 49 min 25 sec)
Heartbeat CPU 0 instructions: 450000000 cycles: 174552388 heartbeat IPC: 0.5251 cumulative IPC: 2.486 (Simulation time: 01 hr 59 min 35 sec)
Heartbeat CPU 0 instructions: 460000002 cycles: 193512353 heartbeat IPC: 0.5274 cumulative IPC: 2.279 (Simulation time: 02 hr 09 min 21 sec)
Heartbeat CPU 0 instructions: 470000003 cycles: 212543500 heartbeat IPC: 0.5255 cumulative IPC: 2.111 (Simulation time: 02 hr 19 min 36 sec)
Heartbeat CPU 0 instructions: 480000003 cycles: 231538616 heartbeat IPC: 0.5265 cumulative IPC: 1.973 (Simulation time: 02 hr 30 min 43 sec)
Heartbeat CPU 0 instructions: 490000004 cycles: 250532345 heartbeat IPC: 0.5265 cumulative IPC: 1.857 (Simulation time: 02 hr 41 min 35 sec)
Heartbeat CPU 0 instructions: 500000003 cycles: 269558077 heartbeat IPC: 0.5256 cumulative IPC: 1.758 (Simulation time: 02 hr 52 min 44 sec)
Heartbeat CPU 0 instructions: 510000002 cycles: 288561585 heartbeat IPC: 0.5262 cumulative IPC: 1.673 (Simulation time: 03 hr 04 min 01 sec)
Heartbeat CPU 0 instructions: 520000003 cycles: 307578784 heartbeat IPC: 0.5258 cumulative IPC: 1.599 (Simulation time: 03 hr 14 min 45 sec)
Heartbeat CPU 0 instructions: 530000004 cycles: 326530229 heartbeat IPC: 0.5277 cumulative IPC: 1.534 (Simulation time: 03 hr 25 min 58 sec)
Heartbeat CPU 0 instructions: 540000004 cycles: 345498245 heartbeat IPC: 0.5272 cumulative IPC: 1.476 (Simulation time: 03 hr 33 min 44 sec)
Heartbeat CPU 0 instructions: 550000000 cycles: 364532646 heartbeat IPC: 0.5254 cumulative IPC: 1.425 (Simulation time: 03 hr 37 min 34 sec)
Heartbeat CPU 0 instructions: 560000002 cycles: 383533970 heartbeat IPC: 0.5263 cumulative IPC: 1.379 (Simulation time: 03 hr 40 min 31 sec)
Heartbeat CPU 0 instructions: 570000002 cycles: 402550167 heartbeat IPC: 0.5259 cumulative IPC: 1.337 (Simulation time: 03 hr 43 min 31 sec)
Heartbeat CPU 0 instructions: 580000004 cycles: 421580867 heartbeat IPC: 0.5255 cumulative IPC: 1.299 (Simulation time: 03 hr 46 min 50 sec)
Heartbeat CPU 0 instructions: 590000000 cycles: 440602786 heartbeat IPC: 0.5257 cumulative IPC: 1.265 (Simulation time: 03 hr 50 min 06 sec)
*** Reached end of trace: (0, "traces/l1l2l3cache.champsimtrace")
Heartbeat CPU 0 instructions: 600000000 cycles: 459612535 heartbeat IPC: 0.526 cumulative IPC: 1.233 (Simulation time: 03 hr 53 min 17 sec)
Heartbeat CPU 0 instructions: 610000002 cycles: 468501730 heartbeat IPC: 1.125 cumulative IPC: 1.231 (Simulation time: 03 hr 54 min 49 sec)
Heartbeat CPU 0 instructions: 620000001 cycles: 483924534 heartbeat IPC: 0.6484 cumulative IPC: 1.212 (Simulation time: 03 hr 57 min 12 sec)
Heartbeat CPU 0 instructions: 630000000 cycles: 499358920 heartbeat IPC: 0.6479 cumulative IPC: 1.194 (Simulation time: 03 hr 59 min 34 sec)
Heartbeat CPU 0 instructions: 640000000 cycles: 506613654 heartbeat IPC: 1.378 cumulative IPC: 1.197 (Simulation time: 04 hr 00 min 56 sec)
Heartbeat CPU 0 instructions: 650000003 cycles: 509288339 heartbeat IPC: 3.739 cumulative IPC: 1.21 (Simulation time: 04 hr 01 min 36 sec)
Simulation finished CPU 0 instructions: 600000000 cycles: 495667738 cumulative IPC: 1.21 (Simulation time: 04 hr 01 min 36 sec)
Simulation complete CPU 0 instructions: 600000000 cycles: 495667738 cumulative IPC: 1.21 (Simulation time: 04 hr 01 min 36 sec)

ChampSim completed all CPUs

=== Simulation ===
CPU 0 runs traces/l1l2l3cache.champsimtrace
Region of Interest Statistics

CPU 0 cumulative IPC: 1.21 instructions: 600000000 cycles: 495667738
CPU 0 Branch Prediction Accuracy: 99.5% MPKI: 1.069 Average ROB Occupancy at Mispredict: 149
Branch type MPKI
BRANCH_DIRECT_JUMP: 8.5e-05
BRANCH_INDIRECT: 0.000237
BRANCH_CONDITIONAL: 1.07
BRANCH_DIRECT_CALL: 5e-06
BRANCH_INDIRECT_CALL: 4.67e-05
BRANCH_RETURN: 3.67e-05

LLC TOTAL        ACCESS:    3089472 HIT:     246375 MISS:    2843097
LLC LOAD         ACCESS:    1954448 HIT:     157616 MISS:    1796832
LLC RFO          ACCESS:     561710 HIT:      43756 MISS:     517954
LLC PREFETCH     ACCESS:          0 HIT:          0 MISS:          0
LLC WRITE        ACCESS:     562067 HIT:      44553 MISS:     517514
LLC TRANSLATION  ACCESS:      11247 HIT:        450 MISS:      10797
LLC PREFETCH REQUESTED:          0 ISSUED:          0 USEFUL:          0 USELESS:          0
LLC AVERAGE MISS LATENCY: 572.2 cycles
cpu0_DTLB TOTAL        ACCESS:  130596668 HIT:  128581849 MISS:    2014819
cpu0_DTLB LOAD         ACCESS:  130596668 HIT:  128581849 MISS:    2014819
cpu0_DTLB RFO          ACCESS:          0 HIT:          0 MISS:          0
cpu0_DTLB PREFETCH     ACCESS:          0 HIT:          0 MISS:          0
cpu0_DTLB WRITE        ACCESS:          0 HIT:          0 MISS:          0
cpu0_DTLB TRANSLATION  ACCESS:          0 HIT:          0 MISS:          0
cpu0_DTLB PREFETCH REQUESTED:          0 ISSUED:          0 USEFUL:          0 USELESS:          0
cpu0_DTLB AVERAGE MISS LATENCY: 20.24 cycles
cpu0_ITLB TOTAL        ACCESS:       4983 HIT:       4754 MISS:        229
cpu0_ITLB LOAD         ACCESS:       4983 HIT:       4754 MISS:        229
cpu0_ITLB RFO          ACCESS:          0 HIT:          0 MISS:          0
cpu0_ITLB PREFETCH     ACCESS:          0 HIT:          0 MISS:          0
cpu0_ITLB WRITE        ACCESS:          0 HIT:          0 MISS:          0
cpu0_ITLB TRANSLATION  ACCESS:          0 HIT:          0 MISS:          0
cpu0_ITLB PREFETCH REQUESTED:          0 ISSUED:          0 USEFUL:          0 USELESS:          0
cpu0_ITLB AVERAGE MISS LATENCY: 80.97 cycles
cpu0_L1D TOTAL        ACCESS:  178132030 HIT:  166864489 MISS:   11267541
cpu0_L1D LOAD         ACCESS:   69808487 HIT:   67769087 MISS:    2039400
cpu0_L1D RFO          ACCESS:          0 HIT:          0 MISS:          0
cpu0_L1D PREFETCH     ACCESS:          0 HIT:          0 MISS:          0
cpu0_L1D WRITE        ACCESS:  107018050 HIT:   98536132 MISS:    8481918
cpu0_L1D TRANSLATION  ACCESS:    1305493 HIT:     559270 MISS:     746223
cpu0_L1D PREFETCH REQUESTED:          0 ISSUED:          0 USEFUL:          0 USELESS:          0
cpu0_L1D AVERAGE MISS LATENCY: 144.1 cycles
cpu0_L1I TOTAL        ACCESS:       5687 HIT:       3288 MISS:       2399
cpu0_L1I LOAD         ACCESS:       5687 HIT:       3288 MISS:       2399
cpu0_L1I RFO          ACCESS:          0 HIT:          0 MISS:          0
cpu0_L1I PREFETCH     ACCESS:          0 HIT:          0 MISS:          0
cpu0_L1I WRITE        ACCESS:          0 HIT:          0 MISS:          0
cpu0_L1I TRANSLATION  ACCESS:          0 HIT:          0 MISS:          0
cpu0_L1I PREFETCH REQUESTED:          0 ISSUED:          0 USEFUL:          0 USELESS:          0
cpu0_L1I AVERAGE MISS LATENCY: 146.7 cycles
cpu0_L2C TOTAL        ACCESS:    3903766 HIT:    1376343 MISS:    2527423
cpu0_L2C LOAD         ACCESS:    2009350 HIT:      54902 MISS:    1954448
cpu0_L2C RFO          ACCESS:     573532 HIT:      11822 MISS:     561710
cpu0_L2C PREFETCH     ACCESS:          0 HIT:          0 MISS:          0
cpu0_L2C WRITE        ACCESS:     574683 HIT:     574665 MISS:         18
cpu0_L2C TRANSLATION  ACCESS:     746201 HIT:     734954 MISS:      11247
cpu0_L2C PREFETCH REQUESTED:          0 ISSUED:          0 USEFUL:          0 USELESS:          0
cpu0_L2C AVERAGE MISS LATENCY: 664.5 cycles
cpu0_STLB TOTAL        ACCESS:    1982636 HIT:     677151 MISS:    1305485
cpu0_STLB LOAD         ACCESS:    1982636 HIT:     677151 MISS:    1305485
cpu0_STLB RFO          ACCESS:          0 HIT:          0 MISS:          0
cpu0_STLB PREFETCH     ACCESS:          0 HIT:          0 MISS:          0
cpu0_STLB WRITE        ACCESS:          0 HIT:          0 MISS:          0
cpu0_STLB TRANSLATION  ACCESS:          0 HIT:          0 MISS:          0
cpu0_STLB PREFETCH REQUESTED:          0 ISSUED:          0 USEFUL:          0 USELESS:          0
cpu0_STLB AVERAGE MISS LATENCY: 18.16 cycles

DRAM Statistics

Channel 0 RQ ROW_BUFFER_HIT:      87411
  ROW_BUFFER_MISS:    2237937
 AVG DBUS CONGESTED CYCLE: 3.944
WQ ROW_BUFFER_HIT: Channel 0 
  ROW_BUFFER_MISS:     177520
  FULL:     340493
