WARNING: physical memory size is smaller than virtual memory size.

*** ChampSim Multicore Out-of-Order Simulator ***
Warmup Instructions: 50000000
Simulation Instructions: 600000000
Number of CPUs: 1
Page size: 4096

Off-chip DRAM Size: 4 GiB Channels: 1 Width: 64-bit Data Race: 3200 MT/s
Heartbeat CPU 0 instructions: 10000004 cycles: 2777663 heartbeat IPC: 3.6 cumulative IPC: 3.6 (Simulation time: 00 hr 00 min 26 sec)
Heartbeat CPU 0 instructions: 20000001 cycles: 5634805 heartbeat IPC: 3.5 cumulative IPC: 3.549 (Simulation time: 00 hr 00 min 55 sec)
Heartbeat CPU 0 instructions: 30000000 cycles: 8491948 heartbeat IPC: 3.5 cumulative IPC: 3.533 (Simulation time: 00 hr 01 min 29 sec)
Heartbeat CPU 0 instructions: 40000003 cycles: 11120601 heartbeat IPC: 3.804 cumulative IPC: 3.597 (Simulation time: 00 hr 02 min 04 sec)
Heartbeat CPU 0 instructions: 50000003 cycles: 13620601 heartbeat IPC: 4 cumulative IPC: 3.671 (Simulation time: 00 hr 02 min 41 sec)
Warmup finished CPU 0 instructions: 50000003 cycles: 13620602 cumulative IPC: 3.671 (Simulation time: 00 hr 02 min 41 sec)
Warmup complete CPU 0 instructions: 50000003 cycles: 13620602 cumulative IPC: 3.671 (Simulation time: 00 hr 02 min 41 sec)
Heartbeat CPU 0 instructions: 60000002 cycles: 16295256 heartbeat IPC: 3.739 cumulative IPC: 3.739 (Simulation time: 00 hr 03 min 25 sec)
Heartbeat CPU 0 instructions: 70000001 cycles: 18969955 heartbeat IPC: 3.739 cumulative IPC: 3.739 (Simulation time: 00 hr 04 min 13 sec)
Heartbeat CPU 0 instructions: 80000000 cycles: 21644609 heartbeat IPC: 3.739 cumulative IPC: 3.739 (Simulation time: 00 hr 05 min 03 sec)
Heartbeat CPU 0 instructions: 90000003 cycles: 24319671 heartbeat IPC: 3.738 cumulative IPC: 3.739 (Simulation time: 00 hr 05 min 58 sec)
Heartbeat CPU 0 instructions: 100000003 cycles: 26994326 heartbeat IPC: 3.739 cumulative IPC: 3.739 (Simulation time: 00 hr 07 min 03 sec)
Heartbeat CPU 0 instructions: 110000004 cycles: 29669027 heartbeat IPC: 3.739 cumulative IPC: 3.739 (Simulation time: 00 hr 08 min 04 sec)
Heartbeat CPU 0 instructions: 120000003 cycles: 32343710 heartbeat IPC: 3.739 cumulative IPC: 3.739 (Simulation time: 00 hr 09 min 09 sec)
Heartbeat CPU 0 instructions: 130000002 cycles: 35018380 heartbeat IPC: 3.739 cumulative IPC: 3.739 (Simulation time: 00 hr 10 min 12 sec)
Heartbeat CPU 0 instructions: 140000002 cycles: 37694128 heartbeat IPC: 3.737 cumulative IPC: 3.739 (Simulation time: 00 hr 11 min 13 sec)
Heartbeat CPU 0 instructions: 150000000 cycles: 40368783 heartbeat IPC: 3.739 cumulative IPC: 3.739 (Simulation time: 00 hr 12 min 11 sec)
Heartbeat CPU 0 instructions: 160000001 cycles: 43043484 heartbeat IPC: 3.739 cumulative IPC: 3.739 (Simulation time: 00 hr 13 min 06 sec)
Heartbeat CPU 0 instructions: 170000004 cycles: 45718138 heartbeat IPC: 3.739 cumulative IPC: 3.739 (Simulation time: 00 hr 14 min 03 sec)
Heartbeat CPU 0 instructions: 180000000 cycles: 48392985 heartbeat IPC: 3.739 cumulative IPC: 3.739 (Simulation time: 00 hr 15 min 00 sec)
Heartbeat CPU 0 instructions: 190000004 cycles: 51067684 heartbeat IPC: 3.739 cumulative IPC: 3.739 (Simulation time: 00 hr 15 min 54 sec)
Heartbeat CPU 0 instructions: 200000002 cycles: 53742341 heartbeat IPC: 3.739 cumulative IPC: 3.739 (Simulation time: 00 hr 16 min 51 sec)
Heartbeat CPU 0 instructions: 210000003 cycles: 56417042 heartbeat IPC: 3.739 cumulative IPC: 3.739 (Simulation time: 00 hr 17 min 47 sec)
Heartbeat CPU 0 instructions: 220000001 cycles: 59091695 heartbeat IPC: 3.739 cumulative IPC: 3.739 (Simulation time: 00 hr 18 min 42 sec)
Heartbeat CPU 0 instructions: 230000002 cycles: 61767022 heartbeat IPC: 3.738 cumulative IPC: 3.739 (Simulation time: 00 hr 19 min 40 sec)
Heartbeat CPU 0 instructions: 240000003 cycles: 64441676 heartbeat IPC: 3.739 cumulative IPC: 3.739 (Simulation time: 00 hr 20 min 39 sec)
Heartbeat CPU 0 instructions: 250000004 cycles: 67116378 heartbeat IPC: 3.739 cumulative IPC: 3.739 (Simulation time: 00 hr 21 min 40 sec)
Heartbeat CPU 0 instructions: 260000000 cycles: 69791074 heartbeat IPC: 3.739 cumulative IPC: 3.739 (Simulation time: 00 hr 22 min 38 sec)
Heartbeat CPU 0 instructions: 270000003 cycles: 72466088 heartbeat IPC: 3.738 cumulative IPC: 3.739 (Simulation time: 00 hr 23 min 38 sec)
Heartbeat CPU 0 instructions: 280000001 cycles: 75140787 heartbeat IPC: 3.739 cumulative IPC: 3.739 (Simulation time: 00 hr 24 min 40 sec)
Heartbeat CPU 0 instructions: 290000000 cycles: 77815441 heartbeat IPC: 3.739 cumulative IPC: 3.739 (Simulation time: 00 hr 25 min 43 sec)
Heartbeat CPU 0 instructions: 300000001 cycles: 80490143 heartbeat IPC: 3.739 cumulative IPC: 3.739 (Simulation time: 00 hr 26 min 45 sec)
Heartbeat CPU 0 instructions: 310000000 cycles: 83164797 heartbeat IPC: 3.739 cumulative IPC: 3.739 (Simulation time: 00 hr 27 min 48 sec)
Heartbeat CPU 0 instructions: 320000000 cycles: 85840327 heartbeat IPC: 3.738 cumulative IPC: 3.739 (Simulation time: 00 hr 28 min 45 sec)
Heartbeat CPU 0 instructions: 330000002 cycles: 88515025 heartbeat IPC: 3.739 cumulative IPC: 3.739 (Simulation time: 00 hr 29 min 46 sec)
Heartbeat CPU 0 instructions: 340000002 cycles: 91189681 heartbeat IPC: 3.739 cumulative IPC: 3.739 (Simulation time: 00 hr 30 min 45 sec)
Heartbeat CPU 0 instructions: 350000003 cycles: 93864383 heartbeat IPC: 3.739 cumulative IPC: 3.739 (Simulation time: 00 hr 31 min 44 sec)
Heartbeat CPU 0 instructions: 360000001 cycles: 96539588 heartbeat IPC: 3.738 cumulative IPC: 3.739 (Simulation time: 00 hr 32 min 41 sec)
Heartbeat CPU 0 instructions: 370000002 cycles: 99214289 heartbeat IPC: 3.739 cumulative IPC: 3.739 (Simulation time: 00 hr 33 min 41 sec)
Heartbeat CPU 0 instructions: 380000001 cycles: 101888956 heartbeat IPC: 3.739 cumulative IPC: 3.739 (Simulation time: 00 hr 34 min 37 sec)
Heartbeat CPU 0 instructions: 390000004 cycles: 104563643 heartbeat IPC: 3.739 cumulative IPC: 3.739 (Simulation time: 00 hr 35 min 37 sec)
Heartbeat CPU 0 instructions: 400000000 cycles: 107238341 heartbeat IPC: 3.739 cumulative IPC: 3.739 (Simulation time: 00 hr 36 min 34 sec)
Heartbeat CPU 0 instructions: 410000003 cycles: 109913165 heartbeat IPC: 3.739 cumulative IPC: 3.739 (Simulation time: 00 hr 37 min 35 sec)
Heartbeat CPU 0 instructions: 420000003 cycles: 120237251 heartbeat IPC: 0.9686 cumulative IPC: 3.47 (Simulation time: 00 hr 40 min 04 sec)
Heartbeat CPU 0 instructions: 430000002 cycles: 142432113 heartbeat IPC: 0.4506 cumulative IPC: 2.95 (Simulation time: 00 hr 44 min 58 sec)
Heartbeat CPU 0 instructions: 440000004 cycles: 161426139 heartbeat IPC: 0.5265 cumulative IPC: 2.639 (Simulation time: 00 hr 49 min 11 sec)
Heartbeat CPU 0 instructions: 450000000 cycles: 180120916 heartbeat IPC: 0.5349 cumulative IPC: 2.402 (Simulation time: 00 hr 53 min 23 sec)
Heartbeat CPU 0 instructions: 460000001 cycles: 198750345 heartbeat IPC: 0.5368 cumulative IPC: 2.215 (Simulation time: 00 hr 57 min 26 sec)
Heartbeat CPU 0 instructions: 470000003 cycles: 217372068 heartbeat IPC: 0.537 cumulative IPC: 2.061 (Simulation time: 01 hr 01 min 43 sec)
Heartbeat CPU 0 instructions: 480000003 cycles: 235990126 heartbeat IPC: 0.5371 cumulative IPC: 1.934 (Simulation time: 01 hr 06 min 53 sec)
Heartbeat CPU 0 instructions: 490000002 cycles: 254590693 heartbeat IPC: 0.5376 cumulative IPC: 1.826 (Simulation time: 01 hr 14 min 46 sec)
Heartbeat CPU 0 instructions: 500000003 cycles: 273208938 heartbeat IPC: 0.5371 cumulative IPC: 1.734 (Simulation time: 01 hr 22 min 25 sec)
Heartbeat CPU 0 instructions: 510000002 cycles: 291791981 heartbeat IPC: 0.5381 cumulative IPC: 1.654 (Simulation time: 01 hr 30 min 54 sec)
Heartbeat CPU 0 instructions: 520000003 cycles: 310395649 heartbeat IPC: 0.5375 cumulative IPC: 1.584 (Simulation time: 01 hr 36 min 13 sec)
Heartbeat CPU 0 instructions: 530000004 cycles: 328982758 heartbeat IPC: 0.538 cumulative IPC: 1.522 (Simulation time: 01 hr 44 min 37 sec)
Heartbeat CPU 0 instructions: 540000004 cycles: 347550742 heartbeat IPC: 0.5386 cumulative IPC: 1.467 (Simulation time: 01 hr 52 min 44 sec)
Heartbeat CPU 0 instructions: 550000000 cycles: 366164336 heartbeat IPC: 0.5372 cumulative IPC: 1.418 (Simulation time: 02 hr 00 min 14 sec)
Heartbeat CPU 0 instructions: 560000002 cycles: 384783337 heartbeat IPC: 0.5371 cumulative IPC: 1.374 (Simulation time: 02 hr 07 min 33 sec)
Heartbeat CPU 0 instructions: 570000002 cycles: 403413555 heartbeat IPC: 0.5368 cumulative IPC: 1.334 (Simulation time: 02 hr 15 min 20 sec)
Heartbeat CPU 0 instructions: 580000000 cycles: 422043618 heartbeat IPC: 0.5368 cumulative IPC: 1.298 (Simulation time: 02 hr 23 min 19 sec)
Heartbeat CPU 0 instructions: 590000000 cycles: 440686409 heartbeat IPC: 0.5364 cumulative IPC: 1.264 (Simulation time: 02 hr 28 min 05 sec)
*** Reached end of trace: (0, "traces/l1l2l3cache.champsimtrace")
Heartbeat CPU 0 instructions: 600000001 cycles: 459271273 heartbeat IPC: 0.5381 cumulative IPC: 1.234 (Simulation time: 02 hr 32 min 21 sec)
Heartbeat CPU 0 instructions: 610000004 cycles: 469215402 heartbeat IPC: 1.006 cumulative IPC: 1.229 (Simulation time: 02 hr 34 min 43 sec)
Heartbeat CPU 0 instructions: 620000003 cycles: 484590546 heartbeat IPC: 0.6504 cumulative IPC: 1.21 (Simulation time: 02 hr 38 min 08 sec)
Heartbeat CPU 0 instructions: 630000004 cycles: 499868508 heartbeat IPC: 0.6545 cumulative IPC: 1.193 (Simulation time: 02 hr 41 min 40 sec)
Heartbeat CPU 0 instructions: 640000000 cycles: 507118428 heartbeat IPC: 1.379 cumulative IPC: 1.196 (Simulation time: 02 hr 43 min 39 sec)
Heartbeat CPU 0 instructions: 650000003 cycles: 509793113 heartbeat IPC: 3.739 cumulative IPC: 1.209 (Simulation time: 02 hr 44 min 49 sec)
Simulation finished CPU 0 instructions: 600000000 cycles: 496172512 cumulative IPC: 1.209 (Simulation time: 02 hr 44 min 49 sec)
Simulation complete CPU 0 instructions: 600000000 cycles: 496172512 cumulative IPC: 1.209 (Simulation time: 02 hr 44 min 49 sec)

ChampSim completed all CPUs

=== Simulation ===
CPU 0 runs traces/l1l2l3cache.champsimtrace
Region of Interest Statistics

CPU 0 cumulative IPC: 1.209 instructions: 600000000 cycles: 496172512
CPU 0 Branch Prediction Accuracy: 99.5% MPKI: 1.069 Average ROB Occupancy at Mispredict: 148.8
Branch type MPKI
BRANCH_DIRECT_JUMP: 8.5e-05
BRANCH_INDIRECT: 0.000237
BRANCH_CONDITIONAL: 1.07
BRANCH_DIRECT_CALL: 5e-06
BRANCH_INDIRECT_CALL: 4.67e-05
BRANCH_RETURN: 3.67e-05

LLC TOTAL        ACCESS:    3095841 HIT:     303733 MISS:    2792108
LLC LOAD         ACCESS:    1954444 HIT:     206472 MISS:    1747972
LLC RFO          ACCESS:     561712 HIT:      28012 MISS:     533700
LLC PREFETCH     ACCESS:       6377 HIT:       1674 MISS:       4703
LLC WRITE        ACCESS:     562065 HIT:      59327 MISS:     502738
LLC TRANSLATION  ACCESS:      11243 HIT:       8248 MISS:       2995
LLC PREFETCH REQUESTED:       6377 ISSUED:       6377 USEFUL:       2312 USELESS:        149
LLC AVERAGE MISS LATENCY: 572.2 cycles
cpu0_DTLB TOTAL        ACCESS:  130627836 HIT:  128612995 MISS:    2014841
cpu0_DTLB LOAD         ACCESS:  130627836 HIT:  128612995 MISS:    2014841
cpu0_DTLB RFO          ACCESS:          0 HIT:          0 MISS:          0
cpu0_DTLB PREFETCH     ACCESS:          0 HIT:          0 MISS:          0
cpu0_DTLB WRITE        ACCESS:          0 HIT:          0 MISS:          0
cpu0_DTLB TRANSLATION  ACCESS:          0 HIT:          0 MISS:          0
cpu0_DTLB PREFETCH REQUESTED:          0 ISSUED:          0 USEFUL:          0 USELESS:          0
cpu0_DTLB AVERAGE MISS LATENCY: 17.91 cycles
cpu0_ITLB TOTAL        ACCESS:       5027 HIT:       4797 MISS:        230
cpu0_ITLB LOAD         ACCESS:       5027 HIT:       4797 MISS:        230
cpu0_ITLB RFO          ACCESS:          0 HIT:          0 MISS:          0
cpu0_ITLB PREFETCH     ACCESS:          0 HIT:          0 MISS:          0
cpu0_ITLB WRITE        ACCESS:          0 HIT:          0 MISS:          0
cpu0_ITLB TRANSLATION  ACCESS:          0 HIT:          0 MISS:          0
cpu0_ITLB PREFETCH REQUESTED:          0 ISSUED:          0 USEFUL:          0 USELESS:          0
cpu0_ITLB AVERAGE MISS LATENCY: 238 cycles
cpu0_L1D TOTAL        ACCESS:  178154191 HIT:  166909064 MISS:   11245127
cpu0_L1D LOAD         ACCESS:   69815894 HIT:   67767971 MISS:    2047923
cpu0_L1D RFO          ACCESS:          0 HIT:          0 MISS:          0
cpu0_L1D PREFETCH     ACCESS:          0 HIT:          0 MISS:          0
cpu0_L1D WRITE        ACCESS:  107032794 HIT:   98581833 MISS:    8450961
cpu0_L1D TRANSLATION  ACCESS:    1305503 HIT:     559260 MISS:     746243
cpu0_L1D PREFETCH REQUESTED:          0 ISSUED:          0 USEFUL:          0 USELESS:          0
cpu0_L1D AVERAGE MISS LATENCY: 141.7 cycles
cpu0_L1I TOTAL        ACCESS:       5737 HIT:       3250 MISS:       2487
cpu0_L1I LOAD         ACCESS:       5737 HIT:       3250 MISS:       2487
cpu0_L1I RFO          ACCESS:          0 HIT:          0 MISS:          0
cpu0_L1I PREFETCH     ACCESS:          0 HIT:          0 MISS:          0
cpu0_L1I WRITE        ACCESS:          0 HIT:          0 MISS:          0
cpu0_L1I TRANSLATION  ACCESS:          0 HIT:          0 MISS:          0
cpu0_L1I PREFETCH REQUESTED:          0 ISSUED:          0 USEFUL:          0 USELESS:          0
cpu0_L1I AVERAGE MISS LATENCY: 330.5 cycles
cpu0_L2C TOTAL        ACCESS:    3903761 HIT:    1376343 MISS:    2527418
cpu0_L2C LOAD         ACCESS:    2009348 HIT:      54904 MISS:    1954444
cpu0_L2C RFO          ACCESS:     573507 HIT:      11795 MISS:     561712
cpu0_L2C PREFETCH     ACCESS:          0 HIT:          0 MISS:          0
cpu0_L2C WRITE        ACCESS:     574675 HIT:     574656 MISS:         19
cpu0_L2C TRANSLATION  ACCESS:     746231 HIT:     734988 MISS:      11243
cpu0_L2C PREFETCH REQUESTED:          0 ISSUED:          0 USEFUL:          0 USELESS:          0
cpu0_L2C AVERAGE MISS LATENCY: 652.7 cycles
cpu0_STLB TOTAL        ACCESS:    1982642 HIT:     677147 MISS:    1305495
cpu0_STLB LOAD         ACCESS:    1982642 HIT:     677147 MISS:    1305495
cpu0_STLB RFO          ACCESS:          0 HIT:          0 MISS:          0
cpu0_STLB PREFETCH     ACCESS:          0 HIT:          0 MISS:          0
cpu0_STLB WRITE        ACCESS:          0 HIT:          0 MISS:          0
cpu0_STLB TRANSLATION  ACCESS:          0 HIT:          0 MISS:          0
cpu0_STLB PREFETCH REQUESTED:          0 ISSUED:          0 USEFUL:          0 USELESS:          0
cpu0_STLB AVERAGE MISS LATENCY: 14.6 cycles

DRAM Statistics

Channel 0 RQ ROW_BUFFER_HIT:     114453
  ROW_BUFFER_MISS:    2171452
 AVG DBUS CONGESTED CYCLE: 3.944
WQ ROW_BUFFER_HIT: Channel 0 
  ROW_BUFFER_MISS:     166582
  FULL:     369478
Final OPTGen Hits: 11686
Final OPTGen Access: 43849
Final OPTGEN Hit Rate: 26.6506
