WARNING: physical memory size is smaller than virtual memory size.

*** ChampSim Multicore Out-of-Order Simulator ***
Warmup Instructions: 50000000
Simulation Instructions: 600000000
Number of CPUs: 1
Page size: 4096

CPU 0 Tage branch predictor
Off-chip DRAM Size: 4 GiB Channels: 1 Width: 64-bit Data Race: 3200 MT/s
Heartbeat CPU 0 instructions: 10000004 cycles: 2777663 heartbeat IPC: 3.6 cumulative IPC: 3.6 (Simulation time: 00 hr 00 min 46 sec)
Heartbeat CPU 0 instructions: 20000001 cycles: 5634805 heartbeat IPC: 3.5 cumulative IPC: 3.549 (Simulation time: 00 hr 01 min 31 sec)
Heartbeat CPU 0 instructions: 30000000 cycles: 8491948 heartbeat IPC: 3.5 cumulative IPC: 3.533 (Simulation time: 00 hr 02 min 22 sec)
Heartbeat CPU 0 instructions: 40000003 cycles: 11120601 heartbeat IPC: 3.804 cumulative IPC: 3.597 (Simulation time: 00 hr 03 min 08 sec)
Heartbeat CPU 0 instructions: 50000003 cycles: 13620601 heartbeat IPC: 4 cumulative IPC: 3.671 (Simulation time: 00 hr 03 min 54 sec)
Warmup finished CPU 0 instructions: 50000003 cycles: 13620602 cumulative IPC: 3.671 (Simulation time: 00 hr 03 min 54 sec)
Warmup complete CPU 0 instructions: 50000003 cycles: 13620602 cumulative IPC: 3.671 (Simulation time: 00 hr 03 min 54 sec)
Heartbeat CPU 0 instructions: 60000002 cycles: 16120603 heartbeat IPC: 4 cumulative IPC: 4 (Simulation time: 00 hr 04 min 58 sec)
Heartbeat CPU 0 instructions: 70000001 cycles: 18620602 heartbeat IPC: 4 cumulative IPC: 4 (Simulation time: 00 hr 06 min 26 sec)
Heartbeat CPU 0 instructions: 80000000 cycles: 21120601 heartbeat IPC: 4 cumulative IPC: 4 (Simulation time: 00 hr 07 min 45 sec)
Heartbeat CPU 0 instructions: 90000003 cycles: 23620910 heartbeat IPC: 4 cumulative IPC: 4 (Simulation time: 00 hr 09 min 00 sec)
Heartbeat CPU 0 instructions: 100000003 cycles: 26120911 heartbeat IPC: 4 cumulative IPC: 4 (Simulation time: 00 hr 10 min 08 sec)
Heartbeat CPU 0 instructions: 110000004 cycles: 28620912 heartbeat IPC: 4 cumulative IPC: 4 (Simulation time: 00 hr 11 min 10 sec)
Heartbeat CPU 0 instructions: 120000003 cycles: 31120911 heartbeat IPC: 4 cumulative IPC: 4 (Simulation time: 00 hr 12 min 11 sec)
Heartbeat CPU 0 instructions: 130000002 cycles: 33620910 heartbeat IPC: 4 cumulative IPC: 4 (Simulation time: 00 hr 13 min 14 sec)
Heartbeat CPU 0 instructions: 140000004 cycles: 36121217 heartbeat IPC: 4 cumulative IPC: 4 (Simulation time: 00 hr 14 min 14 sec)
Heartbeat CPU 0 instructions: 150000000 cycles: 38621217 heartbeat IPC: 4 cumulative IPC: 4 (Simulation time: 00 hr 15 min 17 sec)
Heartbeat CPU 0 instructions: 160000001 cycles: 41121218 heartbeat IPC: 4 cumulative IPC: 4 (Simulation time: 00 hr 16 min 16 sec)
Heartbeat CPU 0 instructions: 170000004 cycles: 43621218 heartbeat IPC: 4 cumulative IPC: 4 (Simulation time: 00 hr 17 min 15 sec)
Heartbeat CPU 0 instructions: 180000000 cycles: 46121525 heartbeat IPC: 4 cumulative IPC: 4 (Simulation time: 00 hr 18 min 15 sec)
Heartbeat CPU 0 instructions: 190000004 cycles: 48621526 heartbeat IPC: 4 cumulative IPC: 4 (Simulation time: 00 hr 19 min 17 sec)
Heartbeat CPU 0 instructions: 200000002 cycles: 51121526 heartbeat IPC: 4 cumulative IPC: 4 (Simulation time: 00 hr 20 min 16 sec)
Heartbeat CPU 0 instructions: 210000003 cycles: 53621527 heartbeat IPC: 4 cumulative IPC: 4 (Simulation time: 00 hr 21 min 14 sec)
Heartbeat CPU 0 instructions: 220000001 cycles: 56121526 heartbeat IPC: 4 cumulative IPC: 4 (Simulation time: 00 hr 22 min 14 sec)
Heartbeat CPU 0 instructions: 230000002 cycles: 58621831 heartbeat IPC: 4 cumulative IPC: 4 (Simulation time: 00 hr 23 min 13 sec)
Heartbeat CPU 0 instructions: 240000003 cycles: 61121831 heartbeat IPC: 4 cumulative IPC: 4 (Simulation time: 00 hr 24 min 08 sec)
Heartbeat CPU 0 instructions: 250000004 cycles: 63621832 heartbeat IPC: 4 cumulative IPC: 4 (Simulation time: 00 hr 25 min 03 sec)
Heartbeat CPU 0 instructions: 260000000 cycles: 66121832 heartbeat IPC: 4 cumulative IPC: 4 (Simulation time: 00 hr 26 min 01 sec)
Heartbeat CPU 0 instructions: 270000003 cycles: 68622140 heartbeat IPC: 4 cumulative IPC: 4 (Simulation time: 00 hr 27 min 01 sec)
Heartbeat CPU 0 instructions: 280000001 cycles: 71122139 heartbeat IPC: 4 cumulative IPC: 4 (Simulation time: 00 hr 27 min 57 sec)
Heartbeat CPU 0 instructions: 290000000 cycles: 73622139 heartbeat IPC: 4 cumulative IPC: 4 (Simulation time: 00 hr 28 min 54 sec)
Heartbeat CPU 0 instructions: 300000001 cycles: 76122140 heartbeat IPC: 4 cumulative IPC: 4 (Simulation time: 00 hr 29 min 50 sec)
Heartbeat CPU 0 instructions: 310000000 cycles: 78622140 heartbeat IPC: 4 cumulative IPC: 4 (Simulation time: 00 hr 30 min 43 sec)
Heartbeat CPU 0 instructions: 320000000 cycles: 81122447 heartbeat IPC: 4 cumulative IPC: 4 (Simulation time: 00 hr 31 min 34 sec)
Heartbeat CPU 0 instructions: 330000000 cycles: 83622445 heartbeat IPC: 4 cumulative IPC: 4 (Simulation time: 00 hr 32 min 29 sec)
Heartbeat CPU 0 instructions: 340000002 cycles: 86122446 heartbeat IPC: 4 cumulative IPC: 4 (Simulation time: 00 hr 33 min 23 sec)
Heartbeat CPU 0 instructions: 350000003 cycles: 88622447 heartbeat IPC: 4 cumulative IPC: 4 (Simulation time: 00 hr 34 min 15 sec)
Heartbeat CPU 0 instructions: 360000001 cycles: 91122753 heartbeat IPC: 4 cumulative IPC: 4 (Simulation time: 00 hr 35 min 05 sec)
Heartbeat CPU 0 instructions: 370000002 cycles: 93622754 heartbeat IPC: 4 cumulative IPC: 4 (Simulation time: 00 hr 35 min 57 sec)
Heartbeat CPU 0 instructions: 380000002 cycles: 96122753 heartbeat IPC: 4 cumulative IPC: 4 (Simulation time: 00 hr 36 min 47 sec)
Heartbeat CPU 0 instructions: 390000004 cycles: 98622754 heartbeat IPC: 4 cumulative IPC: 4 (Simulation time: 00 hr 37 min 36 sec)
Heartbeat CPU 0 instructions: 400000000 cycles: 101122754 heartbeat IPC: 4 cumulative IPC: 4 (Simulation time: 00 hr 38 min 25 sec)
Heartbeat CPU 0 instructions: 410000003 cycles: 103623554 heartbeat IPC: 3.999 cumulative IPC: 4 (Simulation time: 00 hr 39 min 16 sec)
Heartbeat CPU 0 instructions: 420000000 cycles: 113801828 heartbeat IPC: 0.9825 cumulative IPC: 3.693 (Simulation time: 00 hr 41 min 09 sec)
Heartbeat CPU 0 instructions: 430000003 cycles: 135793756 heartbeat IPC: 0.4547 cumulative IPC: 3.11 (Simulation time: 00 hr 44 min 37 sec)
Heartbeat CPU 0 instructions: 440000004 cycles: 154401829 heartbeat IPC: 0.5374 cumulative IPC: 2.77 (Simulation time: 00 hr 47 min 41 sec)
Heartbeat CPU 0 instructions: 450000001 cycles: 172962185 heartbeat IPC: 0.5388 cumulative IPC: 2.51 (Simulation time: 00 hr 50 min 44 sec)
Heartbeat CPU 0 instructions: 460000001 cycles: 191478205 heartbeat IPC: 0.5401 cumulative IPC: 2.305 (Simulation time: 00 hr 53 min 42 sec)
Heartbeat CPU 0 instructions: 470000003 cycles: 210026356 heartbeat IPC: 0.5391 cumulative IPC: 2.138 (Simulation time: 00 hr 55 min 59 sec)
Heartbeat CPU 0 instructions: 480000003 cycles: 228539430 heartbeat IPC: 0.5402 cumulative IPC: 2.001 (Simulation time: 00 hr 58 min 15 sec)
Heartbeat CPU 0 instructions: 490000004 cycles: 247071552 heartbeat IPC: 0.5396 cumulative IPC: 1.885 (Simulation time: 01 hr 00 min 40 sec)
Heartbeat CPU 0 instructions: 500000000 cycles: 265606472 heartbeat IPC: 0.5395 cumulative IPC: 1.786 (Simulation time: 01 hr 03 min 15 sec)
Heartbeat CPU 0 instructions: 510000002 cycles: 284127125 heartbeat IPC: 0.5399 cumulative IPC: 1.701 (Simulation time: 01 hr 05 min 43 sec)
Heartbeat CPU 0 instructions: 520000003 cycles: 302626971 heartbeat IPC: 0.5405 cumulative IPC: 1.626 (Simulation time: 01 hr 08 min 08 sec)
Heartbeat CPU 0 instructions: 530000004 cycles: 321122199 heartbeat IPC: 0.5407 cumulative IPC: 1.561 (Simulation time: 01 hr 10 min 25 sec)
Heartbeat CPU 0 instructions: 540000004 cycles: 339613938 heartbeat IPC: 0.5408 cumulative IPC: 1.503 (Simulation time: 01 hr 12 min 42 sec)
Heartbeat CPU 0 instructions: 550000000 cycles: 358090096 heartbeat IPC: 0.5412 cumulative IPC: 1.452 (Simulation time: 01 hr 15 min 24 sec)
Heartbeat CPU 0 instructions: 560000001 cycles: 376636304 heartbeat IPC: 0.5392 cumulative IPC: 1.405 (Simulation time: 01 hr 18 min 38 sec)
Heartbeat CPU 0 instructions: 570000002 cycles: 395212799 heartbeat IPC: 0.5383 cumulative IPC: 1.363 (Simulation time: 01 hr 21 min 22 sec)
Heartbeat CPU 0 instructions: 580000000 cycles: 413792867 heartbeat IPC: 0.5382 cumulative IPC: 1.324 (Simulation time: 01 hr 23 min 48 sec)
Heartbeat CPU 0 instructions: 590000000 cycles: 432305851 heartbeat IPC: 0.5402 cumulative IPC: 1.29 (Simulation time: 01 hr 26 min 18 sec)
*** Reached end of trace: (0, "traces/l1l2l3cache.champsimtrace")
Heartbeat CPU 0 instructions: 600000000 cycles: 450818620 heartbeat IPC: 0.5402 cumulative IPC: 1.258 (Simulation time: 01 hr 28 min 22 sec)
Heartbeat CPU 0 instructions: 610000004 cycles: 463672662 heartbeat IPC: 0.778 cumulative IPC: 1.244 (Simulation time: 01 hr 29 min 37 sec)
Heartbeat CPU 0 instructions: 620000003 cycles: 478289569 heartbeat IPC: 0.6841 cumulative IPC: 1.227 (Simulation time: 01 hr 30 min 55 sec)
Heartbeat CPU 0 instructions: 630000004 cycles: 492826805 heartbeat IPC: 0.6879 cumulative IPC: 1.21 (Simulation time: 01 hr 32 min 02 sec)
Heartbeat CPU 0 instructions: 640000000 cycles: 499704544 heartbeat IPC: 1.454 cumulative IPC: 1.214 (Simulation time: 01 hr 32 min 40 sec)
Heartbeat CPU 0 instructions: 650000001 cycles: 502204545 heartbeat IPC: 4 cumulative IPC: 1.228 (Simulation time: 01 hr 33 min 02 sec)
Simulation finished CPU 0 instructions: 600000003 cycles: 488583945 cumulative IPC: 1.228 (Simulation time: 01 hr 33 min 02 sec)
Simulation complete CPU 0 instructions: 600000003 cycles: 488583945 cumulative IPC: 1.228 (Simulation time: 01 hr 33 min 02 sec)

ChampSim completed all CPUs

=== Simulation ===
CPU 0 runs traces/l1l2l3cache.champsimtrace
Region of Interest Statistics

CPU 0 cumulative IPC: 1.228 instructions: 600000003 cycles: 488583945
CPU 0 Branch Prediction Accuracy: 99.99% MPKI: 0.01094 Average ROB Occupancy at Mispredict: 170.1
Branch type MPKI
BRANCH_DIRECT_JUMP: 8.5e-05
BRANCH_INDIRECT: 0.000237
BRANCH_CONDITIONAL: 0.0105
BRANCH_DIRECT_CALL: 5e-06
BRANCH_INDIRECT_CALL: 4.67e-05
BRANCH_RETURN: 3.67e-05

LLC TOTAL        ACCESS:    3095791 HIT:     435075 MISS:    2660716
LLC LOAD         ACCESS:    1954445 HIT:     219727 MISS:    1734718
LLC RFO          ACCESS:     561710 HIT:      22320 MISS:     539390
LLC PREFETCH     ACCESS:       6327 HIT:       1722 MISS:       4605
LLC WRITE        ACCESS:     562062 HIT:     182279 MISS:     379783
LLC TRANSLATION  ACCESS:      11247 HIT:       9027 MISS:       2220
LLC PREFETCH REQUESTED:       6327 ISSUED:       6327 USEFUL:       2272 USELESS:         13
LLC AVERAGE MISS LATENCY: 608 cycles
cpu0_DTLB TOTAL        ACCESS:  123814762 HIT:  121800319 MISS:    2014443
cpu0_DTLB LOAD         ACCESS:  123814762 HIT:  121800319 MISS:    2014443
cpu0_DTLB RFO          ACCESS:          0 HIT:          0 MISS:          0
cpu0_DTLB PREFETCH     ACCESS:          0 HIT:          0 MISS:          0
cpu0_DTLB WRITE        ACCESS:          0 HIT:          0 MISS:          0
cpu0_DTLB TRANSLATION  ACCESS:          0 HIT:          0 MISS:          0
cpu0_DTLB PREFETCH REQUESTED:          0 ISSUED:          0 USEFUL:          0 USELESS:          0
cpu0_DTLB AVERAGE MISS LATENCY: 17.65 cycles
cpu0_ITLB TOTAL        ACCESS:       5104 HIT:       4863 MISS:        241
cpu0_ITLB LOAD         ACCESS:       5104 HIT:       4863 MISS:        241
cpu0_ITLB RFO          ACCESS:          0 HIT:          0 MISS:          0
cpu0_ITLB PREFETCH     ACCESS:          0 HIT:          0 MISS:          0
cpu0_ITLB WRITE        ACCESS:          0 HIT:          0 MISS:          0
cpu0_ITLB TRANSLATION  ACCESS:          0 HIT:          0 MISS:          0
cpu0_ITLB PREFETCH REQUESTED:          0 ISSUED:          0 USEFUL:          0 USELESS:          0
cpu0_ITLB AVERAGE MISS LATENCY: 251.7 cycles
cpu0_L1D TOTAL        ACCESS:  171404658 HIT:  159847271 MISS:   11557387
cpu0_L1D LOAD         ACCESS:   63419902 HIT:   61372115 MISS:    2047787
cpu0_L1D RFO          ACCESS:          0 HIT:          0 MISS:          0
cpu0_L1D PREFETCH     ACCESS:          0 HIT:          0 MISS:          0
cpu0_L1D WRITE        ACCESS:  106679255 HIT:   97915878 MISS:    8763377
cpu0_L1D TRANSLATION  ACCESS:    1305501 HIT:     559278 MISS:     746223
cpu0_L1D PREFETCH REQUESTED:          0 ISSUED:          0 USEFUL:          0 USELESS:          0
cpu0_L1D AVERAGE MISS LATENCY: 139.6 cycles
cpu0_L1I TOTAL        ACCESS:       5886 HIT:       3316 MISS:       2570
cpu0_L1I LOAD         ACCESS:       5886 HIT:       3316 MISS:       2570
cpu0_L1I RFO          ACCESS:          0 HIT:          0 MISS:          0
cpu0_L1I PREFETCH     ACCESS:          0 HIT:          0 MISS:          0
cpu0_L1I WRITE        ACCESS:          0 HIT:          0 MISS:          0
cpu0_L1I TRANSLATION  ACCESS:          0 HIT:          0 MISS:          0
cpu0_L1I PREFETCH REQUESTED:          0 ISSUED:          0 USEFUL:          0 USELESS:          0
cpu0_L1I AVERAGE MISS LATENCY: 313.9 cycles
cpu0_L2C TOTAL        ACCESS:    3905745 HIT:    1378327 MISS:    2527418
cpu0_L2C LOAD         ACCESS:    2009354 HIT:      54909 MISS:    1954445
cpu0_L2C RFO          ACCESS:     574411 HIT:      12701 MISS:     561710
cpu0_L2C PREFETCH     ACCESS:          0 HIT:          0 MISS:          0
cpu0_L2C WRITE        ACCESS:     575767 HIT:     575751 MISS:         16
cpu0_L2C TRANSLATION  ACCESS:     746213 HIT:     734966 MISS:      11247
cpu0_L2C PREFETCH REQUESTED:          0 ISSUED:          0 USEFUL:          0 USELESS:          0
cpu0_L2C AVERAGE MISS LATENCY: 660.7 cycles
cpu0_STLB TOTAL        ACCESS:    1982593 HIT:     677100 MISS:    1305493
cpu0_STLB LOAD         ACCESS:    1982593 HIT:     677100 MISS:    1305493
cpu0_STLB RFO          ACCESS:          0 HIT:          0 MISS:          0
cpu0_STLB PREFETCH     ACCESS:          0 HIT:          0 MISS:          0
cpu0_STLB WRITE        ACCESS:          0 HIT:          0 MISS:          0
cpu0_STLB TRANSLATION  ACCESS:          0 HIT:          0 MISS:          0
cpu0_STLB PREFETCH REQUESTED:          0 ISSUED:          0 USEFUL:          0 USELESS:          0
cpu0_STLB AVERAGE MISS LATENCY: 14.2 cycles

DRAM Statistics

Channel 0 RQ ROW_BUFFER_HIT:     145767
  ROW_BUFFER_MISS:    2131705
 AVG DBUS CONGESTED CYCLE: 3.935
WQ ROW_BUFFER_HIT: Channel 0 
  ROW_BUFFER_MISS:     155288
  FULL:     404565
