WARNING: physical memory size is smaller than virtual memory size.

*** ChampSim Multicore Out-of-Order Simulator ***
Warmup Instructions: 50000000
Simulation Instructions: 600000000
Number of CPUs: 1
Page size: 4096

Off-chip DRAM Size: 4 GiB Channels: 1 Width: 64-bit Data Race: 3200 MT/s
Heartbeat CPU 0 instructions: 10000004 cycles: 2777663 heartbeat IPC: 3.6 cumulative IPC: 3.6 (Simulation time: 00 hr 00 min 43 sec)
Heartbeat CPU 0 instructions: 20000001 cycles: 5634805 heartbeat IPC: 3.5 cumulative IPC: 3.549 (Simulation time: 00 hr 01 min 24 sec)
Heartbeat CPU 0 instructions: 30000000 cycles: 8491948 heartbeat IPC: 3.5 cumulative IPC: 3.533 (Simulation time: 00 hr 02 min 05 sec)
Heartbeat CPU 0 instructions: 40000003 cycles: 11120601 heartbeat IPC: 3.804 cumulative IPC: 3.597 (Simulation time: 00 hr 02 min 43 sec)
Heartbeat CPU 0 instructions: 50000003 cycles: 13620601 heartbeat IPC: 4 cumulative IPC: 3.671 (Simulation time: 00 hr 03 min 23 sec)
Warmup finished CPU 0 instructions: 50000003 cycles: 13620602 cumulative IPC: 3.671 (Simulation time: 00 hr 03 min 23 sec)
Warmup complete CPU 0 instructions: 50000003 cycles: 13620602 cumulative IPC: 3.671 (Simulation time: 00 hr 03 min 23 sec)
Heartbeat CPU 0 instructions: 60000002 cycles: 16347845 heartbeat IPC: 3.667 cumulative IPC: 3.667 (Simulation time: 00 hr 04 min 05 sec)
Heartbeat CPU 0 instructions: 70000001 cycles: 19075145 heartbeat IPC: 3.667 cumulative IPC: 3.667 (Simulation time: 00 hr 04 min 48 sec)
Heartbeat CPU 0 instructions: 80000001 cycles: 21802387 heartbeat IPC: 3.667 cumulative IPC: 3.667 (Simulation time: 00 hr 05 min 29 sec)
Heartbeat CPU 0 instructions: 90000000 cycles: 24530053 heartbeat IPC: 3.666 cumulative IPC: 3.667 (Simulation time: 00 hr 06 min 11 sec)
Heartbeat CPU 0 instructions: 100000003 cycles: 27257296 heartbeat IPC: 3.667 cumulative IPC: 3.667 (Simulation time: 00 hr 06 min 53 sec)
Heartbeat CPU 0 instructions: 110000004 cycles: 29984599 heartbeat IPC: 3.667 cumulative IPC: 3.667 (Simulation time: 00 hr 07 min 33 sec)
Heartbeat CPU 0 instructions: 120000003 cycles: 32711869 heartbeat IPC: 3.667 cumulative IPC: 3.667 (Simulation time: 00 hr 08 min 13 sec)
Heartbeat CPU 0 instructions: 130000003 cycles: 35439142 heartbeat IPC: 3.667 cumulative IPC: 3.667 (Simulation time: 00 hr 09 min 14 sec)
Heartbeat CPU 0 instructions: 140000002 cycles: 38167267 heartbeat IPC: 3.666 cumulative IPC: 3.666 (Simulation time: 00 hr 10 min 25 sec)
Heartbeat CPU 0 instructions: 150000000 cycles: 40894510 heartbeat IPC: 3.667 cumulative IPC: 3.667 (Simulation time: 00 hr 11 min 29 sec)
Heartbeat CPU 0 instructions: 160000001 cycles: 43621814 heartbeat IPC: 3.667 cumulative IPC: 3.667 (Simulation time: 00 hr 12 min 28 sec)
Heartbeat CPU 0 instructions: 170000004 cycles: 46349055 heartbeat IPC: 3.667 cumulative IPC: 3.667 (Simulation time: 00 hr 13 min 27 sec)
Heartbeat CPU 0 instructions: 180000000 cycles: 49076738 heartbeat IPC: 3.666 cumulative IPC: 3.667 (Simulation time: 00 hr 14 min 23 sec)
Heartbeat CPU 0 instructions: 190000004 cycles: 51804024 heartbeat IPC: 3.667 cumulative IPC: 3.667 (Simulation time: 00 hr 15 min 15 sec)
Heartbeat CPU 0 instructions: 200000002 cycles: 54531282 heartbeat IPC: 3.667 cumulative IPC: 3.667 (Simulation time: 00 hr 16 min 05 sec)
Heartbeat CPU 0 instructions: 210000003 cycles: 57258585 heartbeat IPC: 3.667 cumulative IPC: 3.667 (Simulation time: 00 hr 16 min 59 sec)
Heartbeat CPU 0 instructions: 220000001 cycles: 59985827 heartbeat IPC: 3.667 cumulative IPC: 3.667 (Simulation time: 00 hr 17 min 50 sec)
Heartbeat CPU 0 instructions: 230000002 cycles: 62713504 heartbeat IPC: 3.666 cumulative IPC: 3.667 (Simulation time: 00 hr 18 min 41 sec)
Heartbeat CPU 0 instructions: 240000003 cycles: 65440746 heartbeat IPC: 3.667 cumulative IPC: 3.667 (Simulation time: 00 hr 19 min 34 sec)
Heartbeat CPU 0 instructions: 250000004 cycles: 68168049 heartbeat IPC: 3.667 cumulative IPC: 3.667 (Simulation time: 00 hr 20 min 23 sec)
Heartbeat CPU 0 instructions: 260000000 cycles: 70895332 heartbeat IPC: 3.667 cumulative IPC: 3.667 (Simulation time: 00 hr 21 min 13 sec)
Heartbeat CPU 0 instructions: 270000003 cycles: 73622949 heartbeat IPC: 3.666 cumulative IPC: 3.667 (Simulation time: 00 hr 22 min 02 sec)
Heartbeat CPU 0 instructions: 280000001 cycles: 76350250 heartbeat IPC: 3.667 cumulative IPC: 3.667 (Simulation time: 00 hr 22 min 54 sec)
Heartbeat CPU 0 instructions: 290000000 cycles: 79077491 heartbeat IPC: 3.667 cumulative IPC: 3.667 (Simulation time: 00 hr 23 min 45 sec)
Heartbeat CPU 0 instructions: 300000001 cycles: 81804794 heartbeat IPC: 3.667 cumulative IPC: 3.667 (Simulation time: 00 hr 24 min 35 sec)
Heartbeat CPU 0 instructions: 310000000 cycles: 84532036 heartbeat IPC: 3.667 cumulative IPC: 3.667 (Simulation time: 00 hr 25 min 24 sec)
Heartbeat CPU 0 instructions: 320000000 cycles: 87259713 heartbeat IPC: 3.666 cumulative IPC: 3.667 (Simulation time: 00 hr 26 min 14 sec)
Heartbeat CPU 0 instructions: 330000001 cycles: 89987009 heartbeat IPC: 3.667 cumulative IPC: 3.667 (Simulation time: 00 hr 27 min 03 sec)
Heartbeat CPU 0 instructions: 340000002 cycles: 92714256 heartbeat IPC: 3.667 cumulative IPC: 3.667 (Simulation time: 00 hr 27 min 50 sec)
Heartbeat CPU 0 instructions: 350000003 cycles: 95441559 heartbeat IPC: 3.667 cumulative IPC: 3.667 (Simulation time: 00 hr 28 min 36 sec)
Heartbeat CPU 0 instructions: 360000001 cycles: 98169164 heartbeat IPC: 3.666 cumulative IPC: 3.667 (Simulation time: 00 hr 29 min 24 sec)
Heartbeat CPU 0 instructions: 370000002 cycles: 100896468 heartbeat IPC: 3.667 cumulative IPC: 3.667 (Simulation time: 00 hr 30 min 11 sec)
Heartbeat CPU 0 instructions: 380000001 cycles: 103623722 heartbeat IPC: 3.667 cumulative IPC: 3.667 (Simulation time: 00 hr 31 min 02 sec)
Heartbeat CPU 0 instructions: 390000004 cycles: 106351011 heartbeat IPC: 3.667 cumulative IPC: 3.667 (Simulation time: 00 hr 31 min 49 sec)
Heartbeat CPU 0 instructions: 400000000 cycles: 109078311 heartbeat IPC: 3.667 cumulative IPC: 3.667 (Simulation time: 00 hr 32 min 37 sec)
Heartbeat CPU 0 instructions: 410000003 cycles: 111805930 heartbeat IPC: 3.666 cumulative IPC: 3.667 (Simulation time: 00 hr 33 min 25 sec)
Heartbeat CPU 0 instructions: 420000004 cycles: 125383092 heartbeat IPC: 0.7365 cumulative IPC: 3.311 (Simulation time: 00 hr 35 min 43 sec)
Heartbeat CPU 0 instructions: 430000003 cycles: 153397343 heartbeat IPC: 0.357 cumulative IPC: 2.719 (Simulation time: 00 hr 40 min 10 sec)
Heartbeat CPU 0 instructions: 440000004 cycles: 180397271 heartbeat IPC: 0.3704 cumulative IPC: 2.338 (Simulation time: 00 hr 44 min 22 sec)
Heartbeat CPU 0 instructions: 450000000 cycles: 207462123 heartbeat IPC: 0.3695 cumulative IPC: 2.064 (Simulation time: 00 hr 48 min 26 sec)
Heartbeat CPU 0 instructions: 460000001 cycles: 234530954 heartbeat IPC: 0.3694 cumulative IPC: 1.856 (Simulation time: 00 hr 52 min 33 sec)
Heartbeat CPU 0 instructions: 470000003 cycles: 261595928 heartbeat IPC: 0.3695 cumulative IPC: 1.694 (Simulation time: 00 hr 56 min 41 sec)
Heartbeat CPU 0 instructions: 480000004 cycles: 288501357 heartbeat IPC: 0.3717 cumulative IPC: 1.564 (Simulation time: 00 hr 59 min 58 sec)
Heartbeat CPU 0 instructions: 490000000 cycles: 315529818 heartbeat IPC: 0.37 cumulative IPC: 1.457 (Simulation time: 01 hr 03 min 02 sec)
Heartbeat CPU 0 instructions: 500000001 cycles: 342657346 heartbeat IPC: 0.3686 cumulative IPC: 1.368 (Simulation time: 01 hr 06 min 26 sec)
Heartbeat CPU 0 instructions: 510000002 cycles: 369589968 heartbeat IPC: 0.3713 cumulative IPC: 1.292 (Simulation time: 01 hr 09 min 47 sec)
Heartbeat CPU 0 instructions: 520000003 cycles: 396645205 heartbeat IPC: 0.3696 cumulative IPC: 1.227 (Simulation time: 01 hr 13 min 01 sec)
Heartbeat CPU 0 instructions: 530000004 cycles: 423539827 heartbeat IPC: 0.3718 cumulative IPC: 1.171 (Simulation time: 01 hr 16 min 07 sec)
Heartbeat CPU 0 instructions: 540000000 cycles: 450518733 heartbeat IPC: 0.3707 cumulative IPC: 1.122 (Simulation time: 01 hr 19 min 41 sec)
Heartbeat CPU 0 instructions: 550000001 cycles: 477483223 heartbeat IPC: 0.3709 cumulative IPC: 1.078 (Simulation time: 01 hr 23 min 56 sec)
Heartbeat CPU 0 instructions: 560000002 cycles: 504458875 heartbeat IPC: 0.3707 cumulative IPC: 1.039 (Simulation time: 01 hr 27 min 19 sec)
Heartbeat CPU 0 instructions: 570000002 cycles: 531512664 heartbeat IPC: 0.3696 cumulative IPC: 1.004 (Simulation time: 01 hr 30 min 34 sec)
Heartbeat CPU 0 instructions: 580000000 cycles: 558484493 heartbeat IPC: 0.3708 cumulative IPC: 0.9727 (Simulation time: 01 hr 33 min 10 sec)
Heartbeat CPU 0 instructions: 590000004 cycles: 585499387 heartbeat IPC: 0.3702 cumulative IPC: 0.9443 (Simulation time: 01 hr 35 min 14 sec)
*** Reached end of trace: (0, "traces/l1l2l3cache.champsimtrace")
Heartbeat CPU 0 instructions: 600000001 cycles: 612473731 heartbeat IPC: 0.3707 cumulative IPC: 0.9184 (Simulation time: 01 hr 37 min 02 sec)
Heartbeat CPU 0 instructions: 610000001 cycles: 625754071 heartbeat IPC: 0.753 cumulative IPC: 0.9148 (Simulation time: 01 hr 37 min 53 sec)
Heartbeat CPU 0 instructions: 620000002 cycles: 640362336 heartbeat IPC: 0.6845 cumulative IPC: 0.9095 (Simulation time: 01 hr 38 min 51 sec)
Heartbeat CPU 0 instructions: 630000003 cycles: 655016898 heartbeat IPC: 0.6824 cumulative IPC: 0.9043 (Simulation time: 01 hr 39 min 40 sec)
Heartbeat CPU 0 instructions: 640000000 cycles: 662123902 heartbeat IPC: 1.407 cumulative IPC: 0.9098 (Simulation time: 01 hr 40 min 05 sec)
Heartbeat CPU 0 instructions: 650000003 cycles: 664851174 heartbeat IPC: 3.667 cumulative IPC: 0.9213 (Simulation time: 01 hr 40 min 19 sec)
Simulation finished CPU 0 instructions: 600000000 cycles: 651230573 cumulative IPC: 0.9213 (Simulation time: 01 hr 40 min 19 sec)
Simulation complete CPU 0 instructions: 600000000 cycles: 651230573 cumulative IPC: 0.9213 (Simulation time: 01 hr 40 min 19 sec)

ChampSim completed all CPUs

=== Simulation ===
CPU 0 runs traces/l1l2l3cache.champsimtrace
Region of Interest Statistics

CPU 0 cumulative IPC: 0.9213 instructions: 600000000 cycles: 651230573
CPU 0 Branch Prediction Accuracy: 99.34% MPKI: 1.413 Average ROB Occupancy at Mispredict: 144.1
Branch type MPKI
BRANCH_DIRECT_JUMP: 8.5e-05
BRANCH_INDIRECT: 0.000237
BRANCH_CONDITIONAL: 1.41
BRANCH_DIRECT_CALL: 5e-06
BRANCH_INDIRECT_CALL: 4.67e-05
BRANCH_RETURN: 3.67e-05

LLC TOTAL        ACCESS:    5043910 HIT:     664497 MISS:    4379413
LLC LOAD         ACCESS:    1954444 HIT:     222389 MISS:    1732055
LLC RFO          ACCESS:     561712 HIT:      23867 MISS:     537845
LLC PREFETCH     ACCESS:    1954444 HIT:     224337 MISS:    1730107
LLC WRITE        ACCESS:     562066 HIT:     184360 MISS:     377706
LLC TRANSLATION  ACCESS:      11244 HIT:       9544 MISS:       1700
LLC PREFETCH REQUESTED:    1954444 ISSUED:    1954444 USEFUL:      17398 USELESS:      28002
LLC AVERAGE MISS LATENCY: 926.8 cycles
cpu0_DTLB TOTAL        ACCESS:  131166988 HIT:  129152614 MISS:    2014374
cpu0_DTLB LOAD         ACCESS:  131166988 HIT:  129152614 MISS:    2014374
cpu0_DTLB RFO          ACCESS:          0 HIT:          0 MISS:          0
cpu0_DTLB PREFETCH     ACCESS:          0 HIT:          0 MISS:          0
cpu0_DTLB WRITE        ACCESS:          0 HIT:          0 MISS:          0
cpu0_DTLB TRANSLATION  ACCESS:          0 HIT:          0 MISS:          0
cpu0_DTLB PREFETCH REQUESTED:          0 ISSUED:          0 USEFUL:          0 USELESS:          0
cpu0_DTLB AVERAGE MISS LATENCY: 17.81 cycles
cpu0_ITLB TOTAL        ACCESS:       4998 HIT:       4777 MISS:        221
cpu0_ITLB LOAD         ACCESS:       4998 HIT:       4777 MISS:        221
cpu0_ITLB RFO          ACCESS:          0 HIT:          0 MISS:          0
cpu0_ITLB PREFETCH     ACCESS:          0 HIT:          0 MISS:          0
cpu0_ITLB WRITE        ACCESS:          0 HIT:          0 MISS:          0
cpu0_ITLB TRANSLATION  ACCESS:          0 HIT:          0 MISS:          0
cpu0_ITLB PREFETCH REQUESTED:          0 ISSUED:          0 USEFUL:          0 USELESS:          0
cpu0_ITLB AVERAGE MISS LATENCY: 273.9 cycles
cpu0_L1D TOTAL        ACCESS:  178671654 HIT:  167137144 MISS:   11534510
cpu0_L1D LOAD         ACCESS:   70702303 HIT:   68652373 MISS:    2049930
cpu0_L1D RFO          ACCESS:          0 HIT:          0 MISS:          0
cpu0_L1D PREFETCH     ACCESS:          0 HIT:          0 MISS:          0
cpu0_L1D WRITE        ACCESS:  106663846 HIT:   97925516 MISS:    8738330
cpu0_L1D TRANSLATION  ACCESS:    1305505 HIT:     559255 MISS:     746250
cpu0_L1D PREFETCH REQUESTED:          0 ISSUED:          0 USEFUL:          0 USELESS:          0
cpu0_L1D AVERAGE MISS LATENCY: 186.5 cycles
cpu0_L1I TOTAL        ACCESS:       5700 HIT:       3421 MISS:       2279
cpu0_L1I LOAD         ACCESS:       5700 HIT:       3421 MISS:       2279
cpu0_L1I RFO          ACCESS:          0 HIT:          0 MISS:          0
cpu0_L1I PREFETCH     ACCESS:          0 HIT:          0 MISS:          0
cpu0_L1I WRITE        ACCESS:          0 HIT:          0 MISS:          0
cpu0_L1I TRANSLATION  ACCESS:          0 HIT:          0 MISS:          0
cpu0_L1I PREFETCH REQUESTED:          0 ISSUED:          0 USEFUL:          0 USELESS:          0
cpu0_L1I AVERAGE MISS LATENCY: 351.7 cycles
cpu0_L2C TOTAL        ACCESS:    3903874 HIT:    1376455 MISS:    2527419
cpu0_L2C LOAD         ACCESS:    2009351 HIT:      54907 MISS:    1954444
cpu0_L2C RFO          ACCESS:     573606 HIT:      11894 MISS:     561712
cpu0_L2C PREFETCH     ACCESS:          0 HIT:          0 MISS:          0
cpu0_L2C WRITE        ACCESS:     574680 HIT:     574661 MISS:         19
cpu0_L2C TRANSLATION  ACCESS:     746237 HIT:     734993 MISS:      11244
cpu0_L2C PREFETCH REQUESTED:          0 ISSUED:          0 USEFUL:          0 USELESS:          0
cpu0_L2C AVERAGE MISS LATENCY: 876.1 cycles
cpu0_STLB TOTAL        ACCESS:    1982682 HIT:     677185 MISS:    1305497
cpu0_STLB LOAD         ACCESS:    1982682 HIT:     677185 MISS:    1305497
cpu0_STLB RFO          ACCESS:          0 HIT:          0 MISS:          0
cpu0_STLB PREFETCH     ACCESS:          0 HIT:          0 MISS:          0
cpu0_STLB WRITE        ACCESS:          0 HIT:          0 MISS:          0
cpu0_STLB TRANSLATION  ACCESS:          0 HIT:          0 MISS:          0
cpu0_STLB PREFETCH REQUESTED:          0 ISSUED:          0 USEFUL:          0 USELESS:          0
cpu0_STLB AVERAGE MISS LATENCY: 14.43 cycles

DRAM Statistics

Channel 0 RQ ROW_BUFFER_HIT:     154972
  ROW_BUFFER_MISS:    3842944
 AVG DBUS CONGESTED CYCLE: 3.97
WQ ROW_BUFFER_HIT: Channel 0 
  ROW_BUFFER_MISS:     151530
  FULL:     407964
