WARNING: physical memory size is smaller than virtual memory size.

*** ChampSim Multicore Out-of-Order Simulator ***
Warmup Instructions: 50000000
Simulation Instructions: 600000000
Number of CPUs: 1
Page size: 4096

Off-chip DRAM Size: 4 GiB Channels: 1 Width: 64-bit Data Race: 3200 MT/s
Heartbeat CPU 0 instructions: 10000000 cycles: 2565785 heartbeat IPC: 3.897 cumulative IPC: 3.897 (Simulation time: 00 hr 00 min 52 sec)
Heartbeat CPU 0 instructions: 20000000 cycles: 5131274 heartbeat IPC: 3.898 cumulative IPC: 3.898 (Simulation time: 00 hr 01 min 52 sec)
Heartbeat CPU 0 instructions: 30000000 cycles: 7631274 heartbeat IPC: 4 cumulative IPC: 3.931 (Simulation time: 00 hr 02 min 55 sec)
Heartbeat CPU 0 instructions: 40000000 cycles: 10131274 heartbeat IPC: 4 cumulative IPC: 3.948 (Simulation time: 00 hr 04 min 04 sec)
Heartbeat CPU 0 instructions: 50000000 cycles: 12631274 heartbeat IPC: 4 cumulative IPC: 3.958 (Simulation time: 00 hr 05 min 13 sec)
Warmup finished CPU 0 instructions: 50000000 cycles: 12631275 cumulative IPC: 3.958 (Simulation time: 00 hr 05 min 13 sec)
Warmup complete CPU 0 instructions: 50000000 cycles: 12631275 cumulative IPC: 3.958 (Simulation time: 00 hr 05 min 13 sec)
Heartbeat CPU 0 instructions: 60000000 cycles: 16408407 heartbeat IPC: 2.648 cumulative IPC: 2.648 (Simulation time: 00 hr 06 min 43 sec)
Heartbeat CPU 0 instructions: 70000000 cycles: 20186549 heartbeat IPC: 2.647 cumulative IPC: 2.647 (Simulation time: 00 hr 08 min 09 sec)
Heartbeat CPU 0 instructions: 80000004 cycles: 23962683 heartbeat IPC: 2.648 cumulative IPC: 2.648 (Simulation time: 00 hr 09 min 40 sec)
Heartbeat CPU 0 instructions: 90000000 cycles: 27741364 heartbeat IPC: 2.646 cumulative IPC: 2.647 (Simulation time: 00 hr 11 min 21 sec)
Heartbeat CPU 0 instructions: 100000003 cycles: 31520115 heartbeat IPC: 2.646 cumulative IPC: 2.647 (Simulation time: 00 hr 12 min 50 sec)
Heartbeat CPU 0 instructions: 110000001 cycles: 35297461 heartbeat IPC: 2.647 cumulative IPC: 2.647 (Simulation time: 00 hr 14 min 21 sec)
Heartbeat CPU 0 instructions: 120000001 cycles: 39072822 heartbeat IPC: 2.649 cumulative IPC: 2.647 (Simulation time: 00 hr 15 min 45 sec)
Heartbeat CPU 0 instructions: 130000001 cycles: 42846915 heartbeat IPC: 2.65 cumulative IPC: 2.648 (Simulation time: 00 hr 17 min 10 sec)
Heartbeat CPU 0 instructions: 140000001 cycles: 46623966 heartbeat IPC: 2.648 cumulative IPC: 2.648 (Simulation time: 00 hr 18 min 33 sec)
Heartbeat CPU 0 instructions: 150000000 cycles: 50400439 heartbeat IPC: 2.648 cumulative IPC: 2.648 (Simulation time: 00 hr 19 min 22 sec)
Heartbeat CPU 0 instructions: 160000002 cycles: 54178785 heartbeat IPC: 2.647 cumulative IPC: 2.648 (Simulation time: 00 hr 20 min 18 sec)
Heartbeat CPU 0 instructions: 170000000 cycles: 57955645 heartbeat IPC: 2.648 cumulative IPC: 2.648 (Simulation time: 00 hr 21 min 16 sec)
Heartbeat CPU 0 instructions: 180000004 cycles: 61730591 heartbeat IPC: 2.649 cumulative IPC: 2.648 (Simulation time: 00 hr 22 min 22 sec)
Heartbeat CPU 0 instructions: 190000001 cycles: 65506668 heartbeat IPC: 2.648 cumulative IPC: 2.648 (Simulation time: 00 hr 23 min 18 sec)
Heartbeat CPU 0 instructions: 200000001 cycles: 69281672 heartbeat IPC: 2.649 cumulative IPC: 2.648 (Simulation time: 00 hr 24 min 12 sec)
Heartbeat CPU 0 instructions: 210000004 cycles: 73057808 heartbeat IPC: 2.648 cumulative IPC: 2.648 (Simulation time: 00 hr 25 min 07 sec)
Heartbeat CPU 0 instructions: 220000003 cycles: 76833732 heartbeat IPC: 2.648 cumulative IPC: 2.648 (Simulation time: 00 hr 26 min 01 sec)
Heartbeat CPU 0 instructions: 230000001 cycles: 80596876 heartbeat IPC: 2.657 cumulative IPC: 2.648 (Simulation time: 00 hr 27 min 09 sec)
Heartbeat CPU 0 instructions: 240000002 cycles: 86210429 heartbeat IPC: 1.781 cumulative IPC: 2.582 (Simulation time: 00 hr 28 min 39 sec)
Heartbeat CPU 0 instructions: 250000003 cycles: 89991230 heartbeat IPC: 2.645 cumulative IPC: 2.585 (Simulation time: 00 hr 29 min 36 sec)
Heartbeat CPU 0 instructions: 260000002 cycles: 93767429 heartbeat IPC: 2.648 cumulative IPC: 2.588 (Simulation time: 00 hr 30 min 33 sec)
Heartbeat CPU 0 instructions: 270000004 cycles: 97543592 heartbeat IPC: 2.648 cumulative IPC: 2.591 (Simulation time: 00 hr 31 min 28 sec)
Heartbeat CPU 0 instructions: 280000000 cycles: 101320653 heartbeat IPC: 2.648 cumulative IPC: 2.593 (Simulation time: 00 hr 32 min 23 sec)
Heartbeat CPU 0 instructions: 290000002 cycles: 105096686 heartbeat IPC: 2.648 cumulative IPC: 2.596 (Simulation time: 00 hr 33 min 18 sec)
Heartbeat CPU 0 instructions: 300000004 cycles: 108871300 heartbeat IPC: 2.649 cumulative IPC: 2.598 (Simulation time: 00 hr 34 min 14 sec)
Heartbeat CPU 0 instructions: 310000002 cycles: 112647675 heartbeat IPC: 2.648 cumulative IPC: 2.6 (Simulation time: 00 hr 35 min 10 sec)
Heartbeat CPU 0 instructions: 320000004 cycles: 116424901 heartbeat IPC: 2.647 cumulative IPC: 2.601 (Simulation time: 00 hr 36 min 04 sec)
Heartbeat CPU 0 instructions: 330000003 cycles: 120202023 heartbeat IPC: 2.648 cumulative IPC: 2.603 (Simulation time: 00 hr 36 min 57 sec)
Heartbeat CPU 0 instructions: 340000000 cycles: 123978732 heartbeat IPC: 2.648 cumulative IPC: 2.604 (Simulation time: 00 hr 37 min 53 sec)
Heartbeat CPU 0 instructions: 350000002 cycles: 127755822 heartbeat IPC: 2.648 cumulative IPC: 2.606 (Simulation time: 00 hr 38 min 49 sec)
Heartbeat CPU 0 instructions: 360000003 cycles: 131532435 heartbeat IPC: 2.648 cumulative IPC: 2.607 (Simulation time: 00 hr 39 min 44 sec)
Heartbeat CPU 0 instructions: 370000004 cycles: 135307714 heartbeat IPC: 2.649 cumulative IPC: 2.608 (Simulation time: 00 hr 40 min 42 sec)
Heartbeat CPU 0 instructions: 380000002 cycles: 139082754 heartbeat IPC: 2.649 cumulative IPC: 2.61 (Simulation time: 00 hr 41 min 38 sec)
Heartbeat CPU 0 instructions: 390000000 cycles: 142855901 heartbeat IPC: 2.65 cumulative IPC: 2.611 (Simulation time: 00 hr 42 min 35 sec)
Heartbeat CPU 0 instructions: 400000001 cycles: 146632000 heartbeat IPC: 2.648 cumulative IPC: 2.612 (Simulation time: 00 hr 43 min 34 sec)
Heartbeat CPU 0 instructions: 410000003 cycles: 150408273 heartbeat IPC: 2.648 cumulative IPC: 2.613 (Simulation time: 00 hr 44 min 30 sec)
Heartbeat CPU 0 instructions: 420000000 cycles: 154186161 heartbeat IPC: 2.647 cumulative IPC: 2.614 (Simulation time: 00 hr 45 min 30 sec)
Heartbeat CPU 0 instructions: 430000001 cycles: 157963904 heartbeat IPC: 2.647 cumulative IPC: 2.615 (Simulation time: 00 hr 46 min 27 sec)
Heartbeat CPU 0 instructions: 440000002 cycles: 161739055 heartbeat IPC: 2.649 cumulative IPC: 2.616 (Simulation time: 00 hr 47 min 22 sec)
Heartbeat CPU 0 instructions: 450000001 cycles: 165082310 heartbeat IPC: 2.991 cumulative IPC: 2.624 (Simulation time: 00 hr 48 min 20 sec)
Heartbeat CPU 0 instructions: 460000002 cycles: 170640089 heartbeat IPC: 1.799 cumulative IPC: 2.595 (Simulation time: 00 hr 49 min 52 sec)
Heartbeat CPU 0 instructions: 470000004 cycles: 174414581 heartbeat IPC: 2.649 cumulative IPC: 2.596 (Simulation time: 00 hr 50 min 51 sec)
Heartbeat CPU 0 instructions: 480000000 cycles: 178191729 heartbeat IPC: 2.647 cumulative IPC: 2.597 (Simulation time: 00 hr 51 min 47 sec)
Heartbeat CPU 0 instructions: 490000000 cycles: 181967935 heartbeat IPC: 2.648 cumulative IPC: 2.598 (Simulation time: 00 hr 52 min 45 sec)
Heartbeat CPU 0 instructions: 500000002 cycles: 185743519 heartbeat IPC: 2.649 cumulative IPC: 2.599 (Simulation time: 00 hr 53 min 42 sec)
Heartbeat CPU 0 instructions: 510000001 cycles: 189519981 heartbeat IPC: 2.648 cumulative IPC: 2.601 (Simulation time: 00 hr 54 min 37 sec)
Heartbeat CPU 0 instructions: 520000002 cycles: 193296496 heartbeat IPC: 2.648 cumulative IPC: 2.601 (Simulation time: 00 hr 55 min 33 sec)
Heartbeat CPU 0 instructions: 530000002 cycles: 197071882 heartbeat IPC: 2.649 cumulative IPC: 2.602 (Simulation time: 00 hr 56 min 39 sec)
Heartbeat CPU 0 instructions: 540000000 cycles: 200850537 heartbeat IPC: 2.646 cumulative IPC: 2.603 (Simulation time: 00 hr 57 min 42 sec)
Heartbeat CPU 0 instructions: 550000000 cycles: 204625916 heartbeat IPC: 2.649 cumulative IPC: 2.604 (Simulation time: 00 hr 58 min 47 sec)
Heartbeat CPU 0 instructions: 560000001 cycles: 208402027 heartbeat IPC: 2.648 cumulative IPC: 2.605 (Simulation time: 00 hr 59 min 50 sec)
Heartbeat CPU 0 instructions: 570000001 cycles: 212177882 heartbeat IPC: 2.648 cumulative IPC: 2.606 (Simulation time: 01 hr 00 min 50 sec)
Heartbeat CPU 0 instructions: 580000002 cycles: 215958116 heartbeat IPC: 2.645 cumulative IPC: 2.607 (Simulation time: 01 hr 01 min 50 sec)
Heartbeat CPU 0 instructions: 590000003 cycles: 219734131 heartbeat IPC: 2.648 cumulative IPC: 2.607 (Simulation time: 01 hr 02 min 47 sec)
*** Reached end of trace: (0, "traces/l1l2cache.champsimtrace")
Heartbeat CPU 0 instructions: 600000001 cycles: 223510437 heartbeat IPC: 2.648 cumulative IPC: 2.608 (Simulation time: 01 hr 03 min 43 sec)
Heartbeat CPU 0 instructions: 610000001 cycles: 226926051 heartbeat IPC: 2.928 cumulative IPC: 2.613 (Simulation time: 01 hr 04 min 47 sec)
Heartbeat CPU 0 instructions: 620000004 cycles: 229727674 heartbeat IPC: 3.569 cumulative IPC: 2.626 (Simulation time: 01 hr 05 min 56 sec)
Heartbeat CPU 0 instructions: 630000004 cycles: 233501308 heartbeat IPC: 2.65 cumulative IPC: 2.626 (Simulation time: 01 hr 06 min 57 sec)
Heartbeat CPU 0 instructions: 640000004 cycles: 237276772 heartbeat IPC: 2.649 cumulative IPC: 2.626 (Simulation time: 01 hr 07 min 53 sec)
Heartbeat CPU 0 instructions: 650000004 cycles: 241055207 heartbeat IPC: 2.647 cumulative IPC: 2.627 (Simulation time: 01 hr 08 min 53 sec)
Simulation finished CPU 0 instructions: 600000004 cycles: 228423933 cumulative IPC: 2.627 (Simulation time: 01 hr 08 min 53 sec)
Simulation complete CPU 0 instructions: 600000004 cycles: 228423933 cumulative IPC: 2.627 (Simulation time: 01 hr 08 min 53 sec)

ChampSim completed all CPUs

=== Simulation ===
CPU 0 runs traces/l1l2cache.champsimtrace
Region of Interest Statistics

CPU 0 cumulative IPC: 2.627 instructions: 600000004 cycles: 228423933
CPU 0 Branch Prediction Accuracy: 89.66% MPKI: 8.781 Average ROB Occupancy at Mispredict: 55.03
Branch type MPKI
BRANCH_DIRECT_JUMP: 9.5e-05
BRANCH_INDIRECT: 0.000282
BRANCH_CONDITIONAL: 8.78
BRANCH_DIRECT_CALL: 3.33e-06
BRANCH_INDIRECT_CALL: 4.83e-05
BRANCH_RETURN: 3.33e-05

LLC TOTAL        ACCESS:     319102 HIT:     172350 MISS:     146752
LLC LOAD         ACCESS:      59444 HIT:      38325 MISS:      21119
LLC RFO          ACCESS:      99913 HIT:      47916 MISS:      51997
LLC PREFETCH     ACCESS:      59444 HIT:      33802 MISS:      25642
LLC WRITE        ACCESS:     100296 HIT:      52306 MISS:      47990
LLC TRANSLATION  ACCESS:          5 HIT:          1 MISS:          4
LLC PREFETCH REQUESTED:      59444 ISSUED:      59444 USEFUL:      24087 USELESS:       1843
LLC AVERAGE MISS LATENCY: 290.6 cycles
cpu0_DTLB TOTAL        ACCESS:   83064616 HIT:   83053793 MISS:      10823
cpu0_DTLB LOAD         ACCESS:   83064616 HIT:   83053793 MISS:      10823
cpu0_DTLB RFO          ACCESS:          0 HIT:          0 MISS:          0
cpu0_DTLB PREFETCH     ACCESS:          0 HIT:          0 MISS:          0
cpu0_DTLB WRITE        ACCESS:          0 HIT:          0 MISS:          0
cpu0_DTLB TRANSLATION  ACCESS:          0 HIT:          0 MISS:          0
cpu0_DTLB PREFETCH REQUESTED:          0 ISSUED:          0 USEFUL:          0 USELESS:          0
cpu0_DTLB AVERAGE MISS LATENCY: 5.875 cycles
cpu0_ITLB TOTAL        ACCESS:       5513 HIT:       5276 MISS:        237
cpu0_ITLB LOAD         ACCESS:       5513 HIT:       5276 MISS:        237
cpu0_ITLB RFO          ACCESS:          0 HIT:          0 MISS:          0
cpu0_ITLB PREFETCH     ACCESS:          0 HIT:          0 MISS:          0
cpu0_ITLB WRITE        ACCESS:          0 HIT:          0 MISS:          0
cpu0_ITLB TRANSLATION  ACCESS:          0 HIT:          0 MISS:          0
cpu0_ITLB PREFETCH REQUESTED:          0 ISSUED:          0 USEFUL:          0 USELESS:          0
cpu0_ITLB AVERAGE MISS LATENCY: 5.827 cycles
cpu0_L1D TOTAL        ACCESS:  105886691 HIT:  104117083 MISS:    1769608
cpu0_L1D LOAD         ACCESS:   46634561 HIT:   46168015 MISS:     466546
cpu0_L1D RFO          ACCESS:          0 HIT:          0 MISS:          0
cpu0_L1D PREFETCH     ACCESS:          0 HIT:          0 MISS:          0
cpu0_L1D WRITE        ACCESS:   59251872 HIT:   57948815 MISS:    1303057
cpu0_L1D TRANSLATION  ACCESS:        258 HIT:        253 MISS:          5
cpu0_L1D PREFETCH REQUESTED:          0 ISSUED:          0 USEFUL:          0 USELESS:          0
cpu0_L1D AVERAGE MISS LATENCY: 20.89 cycles
cpu0_L1I TOTAL        ACCESS:       6263 HIT:       3944 MISS:       2319
cpu0_L1I LOAD         ACCESS:       6263 HIT:       3944 MISS:       2319
cpu0_L1I RFO          ACCESS:          0 HIT:          0 MISS:          0
cpu0_L1I PREFETCH     ACCESS:          0 HIT:          0 MISS:          0
cpu0_L1I WRITE        ACCESS:          0 HIT:          0 MISS:          0
cpu0_L1I TRANSLATION  ACCESS:          0 HIT:          0 MISS:          0
cpu0_L1I PREFETCH REQUESTED:          0 ISSUED:          0 USEFUL:          0 USELESS:          0
cpu0_L1I AVERAGE MISS LATENCY: 133.8 cycles
cpu0_L2C TOTAL        ACCESS:     265737 HIT:     106356 MISS:     159381
cpu0_L2C LOAD         ACCESS:      63736 HIT:       4292 MISS:      59444
cpu0_L2C RFO          ACCESS:     100738 HIT:        825 MISS:      99913
cpu0_L2C PREFETCH     ACCESS:          0 HIT:          0 MISS:          0
cpu0_L2C WRITE        ACCESS:     101258 HIT:     101239 MISS:         19
cpu0_L2C TRANSLATION  ACCESS:          5 HIT:          0 MISS:          5
cpu0_L2C PREFETCH REQUESTED:          0 ISSUED:          0 USEFUL:          0 USELESS:          0
cpu0_L2C AVERAGE MISS LATENCY: 266.5 cycles
cpu0_STLB TOTAL        ACCESS:       3914 HIT:       3657 MISS:        257
cpu0_STLB LOAD         ACCESS:       3914 HIT:       3657 MISS:        257
cpu0_STLB RFO          ACCESS:          0 HIT:          0 MISS:          0
cpu0_STLB PREFETCH     ACCESS:          0 HIT:          0 MISS:          0
cpu0_STLB WRITE        ACCESS:          0 HIT:          0 MISS:          0
cpu0_STLB TRANSLATION  ACCESS:          0 HIT:          0 MISS:          0
cpu0_STLB PREFETCH REQUESTED:          0 ISSUED:          0 USEFUL:          0 USELESS:          0
cpu0_STLB AVERAGE MISS LATENCY: 216.5 cycles

DRAM Statistics

Channel 0 RQ ROW_BUFFER_HIT:      43434
  ROW_BUFFER_MISS:      35412
 AVG DBUS CONGESTED CYCLE: 3.953
WQ ROW_BUFFER_HIT: Channel 0 
  ROW_BUFFER_MISS:      23625
  FULL:      25161
