WARNING: physical memory size is smaller than virtual memory size.

*** ChampSim Multicore Out-of-Order Simulator ***
Warmup Instructions: 50000000
Simulation Instructions: 600000000
Number of CPUs: 1
Page size: 4096

Off-chip DRAM Size: 4 GiB Channels: 1 Width: 64-bit Data Race: 3200 MT/s
Heartbeat CPU 0 instructions: 10000000 cycles: 2565785 heartbeat IPC: 3.897 cumulative IPC: 3.897 (Simulation time: 00 hr 00 min 54 sec)
Heartbeat CPU 0 instructions: 20000000 cycles: 5131274 heartbeat IPC: 3.898 cumulative IPC: 3.898 (Simulation time: 00 hr 01 min 45 sec)
Heartbeat CPU 0 instructions: 30000000 cycles: 7631274 heartbeat IPC: 4 cumulative IPC: 3.931 (Simulation time: 00 hr 02 min 32 sec)
Heartbeat CPU 0 instructions: 40000000 cycles: 10131274 heartbeat IPC: 4 cumulative IPC: 3.948 (Simulation time: 00 hr 03 min 16 sec)
Heartbeat CPU 0 instructions: 50000000 cycles: 12631274 heartbeat IPC: 4 cumulative IPC: 3.958 (Simulation time: 00 hr 04 min 01 sec)
Warmup finished CPU 0 instructions: 50000000 cycles: 12631275 cumulative IPC: 3.958 (Simulation time: 00 hr 04 min 01 sec)
Warmup complete CPU 0 instructions: 50000000 cycles: 12631275 cumulative IPC: 3.958 (Simulation time: 00 hr 04 min 01 sec)
Heartbeat CPU 0 instructions: 60000000 cycles: 16058852 heartbeat IPC: 2.918 cumulative IPC: 2.918 (Simulation time: 00 hr 04 min 59 sec)
Heartbeat CPU 0 instructions: 70000000 cycles: 19488286 heartbeat IPC: 2.916 cumulative IPC: 2.917 (Simulation time: 00 hr 05 min 54 sec)
Heartbeat CPU 0 instructions: 80000004 cycles: 22914704 heartbeat IPC: 2.919 cumulative IPC: 2.917 (Simulation time: 00 hr 06 min 52 sec)
Heartbeat CPU 0 instructions: 90000000 cycles: 26342392 heartbeat IPC: 2.917 cumulative IPC: 2.917 (Simulation time: 00 hr 07 min 50 sec)
Heartbeat CPU 0 instructions: 100000003 cycles: 29773619 heartbeat IPC: 2.914 cumulative IPC: 2.917 (Simulation time: 00 hr 08 min 48 sec)
Heartbeat CPU 0 instructions: 110000000 cycles: 33199684 heartbeat IPC: 2.919 cumulative IPC: 2.917 (Simulation time: 00 hr 09 min 41 sec)
Heartbeat CPU 0 instructions: 120000001 cycles: 36624207 heartbeat IPC: 2.92 cumulative IPC: 2.918 (Simulation time: 00 hr 10 min 37 sec)
Heartbeat CPU 0 instructions: 130000001 cycles: 40050788 heartbeat IPC: 2.918 cumulative IPC: 2.918 (Simulation time: 00 hr 11 min 37 sec)
Heartbeat CPU 0 instructions: 140000002 cycles: 43477136 heartbeat IPC: 2.919 cumulative IPC: 2.918 (Simulation time: 00 hr 12 min 32 sec)
Heartbeat CPU 0 instructions: 150000000 cycles: 46902215 heartbeat IPC: 2.92 cumulative IPC: 2.918 (Simulation time: 00 hr 13 min 28 sec)
Heartbeat CPU 0 instructions: 160000002 cycles: 50328722 heartbeat IPC: 2.918 cumulative IPC: 2.918 (Simulation time: 00 hr 14 min 22 sec)
Heartbeat CPU 0 instructions: 170000000 cycles: 53756209 heartbeat IPC: 2.918 cumulative IPC: 2.918 (Simulation time: 00 hr 15 min 24 sec)
Heartbeat CPU 0 instructions: 180000004 cycles: 57182235 heartbeat IPC: 2.919 cumulative IPC: 2.918 (Simulation time: 00 hr 16 min 24 sec)
Heartbeat CPU 0 instructions: 190000001 cycles: 60608942 heartbeat IPC: 2.918 cumulative IPC: 2.918 (Simulation time: 00 hr 17 min 22 sec)
Heartbeat CPU 0 instructions: 200000001 cycles: 64034698 heartbeat IPC: 2.919 cumulative IPC: 2.918 (Simulation time: 00 hr 18 min 20 sec)
Heartbeat CPU 0 instructions: 210000004 cycles: 67460593 heartbeat IPC: 2.919 cumulative IPC: 2.918 (Simulation time: 00 hr 19 min 19 sec)
Heartbeat CPU 0 instructions: 220000002 cycles: 70888099 heartbeat IPC: 2.918 cumulative IPC: 2.918 (Simulation time: 00 hr 20 min 16 sec)
Heartbeat CPU 0 instructions: 230000001 cycles: 74363166 heartbeat IPC: 2.878 cumulative IPC: 2.916 (Simulation time: 00 hr 21 min 21 sec)
Heartbeat CPU 0 instructions: 240000003 cycles: 78241626 heartbeat IPC: 2.578 cumulative IPC: 2.896 (Simulation time: 00 hr 22 min 30 sec)
Heartbeat CPU 0 instructions: 250000003 cycles: 81675301 heartbeat IPC: 2.912 cumulative IPC: 2.897 (Simulation time: 00 hr 23 min 26 sec)
Heartbeat CPU 0 instructions: 260000000 cycles: 85102039 heartbeat IPC: 2.918 cumulative IPC: 2.898 (Simulation time: 00 hr 24 min 21 sec)
Heartbeat CPU 0 instructions: 270000004 cycles: 88528034 heartbeat IPC: 2.919 cumulative IPC: 2.899 (Simulation time: 00 hr 25 min 17 sec)
Heartbeat CPU 0 instructions: 280000000 cycles: 91955861 heartbeat IPC: 2.917 cumulative IPC: 2.899 (Simulation time: 00 hr 26 min 12 sec)
Heartbeat CPU 0 instructions: 290000002 cycles: 95383996 heartbeat IPC: 2.917 cumulative IPC: 2.9 (Simulation time: 00 hr 27 min 08 sec)
Heartbeat CPU 0 instructions: 300000004 cycles: 98807562 heartbeat IPC: 2.921 cumulative IPC: 2.901 (Simulation time: 00 hr 28 min 03 sec)
Heartbeat CPU 0 instructions: 310000002 cycles: 102235685 heartbeat IPC: 2.917 cumulative IPC: 2.902 (Simulation time: 00 hr 28 min 59 sec)
Heartbeat CPU 0 instructions: 320000000 cycles: 105663495 heartbeat IPC: 2.917 cumulative IPC: 2.902 (Simulation time: 00 hr 29 min 58 sec)
Heartbeat CPU 0 instructions: 330000004 cycles: 109090244 heartbeat IPC: 2.918 cumulative IPC: 2.903 (Simulation time: 00 hr 30 min 55 sec)
Heartbeat CPU 0 instructions: 340000000 cycles: 112517501 heartbeat IPC: 2.918 cumulative IPC: 2.903 (Simulation time: 00 hr 31 min 50 sec)
Heartbeat CPU 0 instructions: 350000003 cycles: 115946422 heartbeat IPC: 2.916 cumulative IPC: 2.904 (Simulation time: 00 hr 32 min 41 sec)
Heartbeat CPU 0 instructions: 360000003 cycles: 119374070 heartbeat IPC: 2.917 cumulative IPC: 2.904 (Simulation time: 00 hr 33 min 22 sec)
Heartbeat CPU 0 instructions: 370000004 cycles: 122800462 heartbeat IPC: 2.919 cumulative IPC: 2.905 (Simulation time: 00 hr 34 min 04 sec)
Heartbeat CPU 0 instructions: 380000003 cycles: 126225996 heartbeat IPC: 2.919 cumulative IPC: 2.905 (Simulation time: 00 hr 35 min 16 sec)
Heartbeat CPU 0 instructions: 390000000 cycles: 129646975 heartbeat IPC: 2.923 cumulative IPC: 2.906 (Simulation time: 00 hr 36 min 43 sec)
Heartbeat CPU 0 instructions: 400000002 cycles: 133074355 heartbeat IPC: 2.918 cumulative IPC: 2.906 (Simulation time: 00 hr 37 min 57 sec)
Heartbeat CPU 0 instructions: 410000003 cycles: 136501851 heartbeat IPC: 2.918 cumulative IPC: 2.906 (Simulation time: 00 hr 38 min 36 sec)
Heartbeat CPU 0 instructions: 420000001 cycles: 139929679 heartbeat IPC: 2.917 cumulative IPC: 2.907 (Simulation time: 00 hr 39 min 14 sec)
Heartbeat CPU 0 instructions: 430000001 cycles: 143358429 heartbeat IPC: 2.917 cumulative IPC: 2.907 (Simulation time: 00 hr 39 min 53 sec)
Heartbeat CPU 0 instructions: 440000002 cycles: 146782989 heartbeat IPC: 2.92 cumulative IPC: 2.907 (Simulation time: 00 hr 40 min 32 sec)
Heartbeat CPU 0 instructions: 450000001 cycles: 150090563 heartbeat IPC: 3.023 cumulative IPC: 2.91 (Simulation time: 00 hr 41 min 17 sec)
Heartbeat CPU 0 instructions: 460000002 cycles: 153963565 heartbeat IPC: 2.582 cumulative IPC: 2.901 (Simulation time: 00 hr 42 min 08 sec)
Heartbeat CPU 0 instructions: 470000004 cycles: 157386875 heartbeat IPC: 2.921 cumulative IPC: 2.901 (Simulation time: 00 hr 42 min 49 sec)
Heartbeat CPU 0 instructions: 480000000 cycles: 160815102 heartbeat IPC: 2.917 cumulative IPC: 2.902 (Simulation time: 00 hr 43 min 30 sec)
Heartbeat CPU 0 instructions: 490000000 cycles: 164240477 heartbeat IPC: 2.919 cumulative IPC: 2.902 (Simulation time: 00 hr 44 min 09 sec)
Heartbeat CPU 0 instructions: 500000002 cycles: 167667239 heartbeat IPC: 2.918 cumulative IPC: 2.903 (Simulation time: 00 hr 44 min 49 sec)
Heartbeat CPU 0 instructions: 510000001 cycles: 171096172 heartbeat IPC: 2.916 cumulative IPC: 2.903 (Simulation time: 00 hr 45 min 29 sec)
Heartbeat CPU 0 instructions: 520000003 cycles: 174521503 heartbeat IPC: 2.919 cumulative IPC: 2.903 (Simulation time: 00 hr 46 min 08 sec)
Heartbeat CPU 0 instructions: 530000002 cycles: 177945373 heartbeat IPC: 2.921 cumulative IPC: 2.904 (Simulation time: 00 hr 46 min 48 sec)
Heartbeat CPU 0 instructions: 540000000 cycles: 181374072 heartbeat IPC: 2.917 cumulative IPC: 2.904 (Simulation time: 00 hr 47 min 27 sec)
Heartbeat CPU 0 instructions: 550000000 cycles: 184800313 heartbeat IPC: 2.919 cumulative IPC: 2.904 (Simulation time: 00 hr 48 min 05 sec)
Heartbeat CPU 0 instructions: 560000001 cycles: 188225062 heartbeat IPC: 2.92 cumulative IPC: 2.904 (Simulation time: 00 hr 48 min 43 sec)
Heartbeat CPU 0 instructions: 570000001 cycles: 191650544 heartbeat IPC: 2.919 cumulative IPC: 2.905 (Simulation time: 00 hr 49 min 21 sec)
Heartbeat CPU 0 instructions: 580000000 cycles: 195080333 heartbeat IPC: 2.916 cumulative IPC: 2.905 (Simulation time: 00 hr 50 min 00 sec)
Heartbeat CPU 0 instructions: 590000003 cycles: 198506718 heartbeat IPC: 2.919 cumulative IPC: 2.905 (Simulation time: 00 hr 50 min 39 sec)
*** Reached end of trace: (0, "traces/l1l2cache.champsimtrace")
Heartbeat CPU 0 instructions: 600000001 cycles: 201934854 heartbeat IPC: 2.917 cumulative IPC: 2.905 (Simulation time: 00 hr 51 min 17 sec)
Heartbeat CPU 0 instructions: 610000000 cycles: 205045601 heartbeat IPC: 3.215 cumulative IPC: 2.91 (Simulation time: 00 hr 51 min 58 sec)
Heartbeat CPU 0 instructions: 620000004 cycles: 207787055 heartbeat IPC: 3.648 cumulative IPC: 2.921 (Simulation time: 00 hr 52 min 39 sec)
Heartbeat CPU 0 instructions: 630000004 cycles: 211210131 heartbeat IPC: 2.921 cumulative IPC: 2.921 (Simulation time: 00 hr 53 min 18 sec)
Heartbeat CPU 0 instructions: 640000000 cycles: 214635059 heartbeat IPC: 2.92 cumulative IPC: 2.921 (Simulation time: 00 hr 53 min 56 sec)
Heartbeat CPU 0 instructions: 650000004 cycles: 218064463 heartbeat IPC: 2.916 cumulative IPC: 2.921 (Simulation time: 00 hr 54 min 36 sec)
Simulation finished CPU 0 instructions: 600000004 cycles: 205433189 cumulative IPC: 2.921 (Simulation time: 00 hr 54 min 36 sec)
Simulation complete CPU 0 instructions: 600000004 cycles: 205433189 cumulative IPC: 2.921 (Simulation time: 00 hr 54 min 36 sec)

ChampSim completed all CPUs

=== Simulation ===
CPU 0 runs traces/l1l2cache.champsimtrace
Region of Interest Statistics

CPU 0 cumulative IPC: 2.921 instructions: 600000004 cycles: 205433189
CPU 0 Branch Prediction Accuracy: 93.04% MPKI: 5.913 Average ROB Occupancy at Mispredict: 67.85
Branch type MPKI
BRANCH_DIRECT_JUMP: 9.5e-05
BRANCH_INDIRECT: 0.000282
BRANCH_CONDITIONAL: 5.91
BRANCH_DIRECT_CALL: 3.33e-06
BRANCH_INDIRECT_CALL: 4.83e-05
BRANCH_RETURN: 3.33e-05

LLC TOTAL        ACCESS:     408873 HIT:     251937 MISS:     156936
LLC LOAD         ACCESS:      59445 HIT:      52142 MISS:       7303
LLC RFO          ACCESS:      99913 HIT:      48023 MISS:      51890
LLC PREFETCH     ACCESS:     149206 HIT:      98200 MISS:      51006
LLC WRITE        ACCESS:     100304 HIT:      53572 MISS:      46732
LLC TRANSLATION  ACCESS:          5 HIT:          0 MISS:          5
LLC PREFETCH REQUESTED:     149206 ISSUED:     149206 USEFUL:      23302 USELESS:         29
LLC AVERAGE MISS LATENCY: 248.7 cycles
cpu0_DTLB TOTAL        ACCESS:   82364803 HIT:   82353966 MISS:      10837
cpu0_DTLB LOAD         ACCESS:   82364803 HIT:   82353966 MISS:      10837
cpu0_DTLB RFO          ACCESS:          0 HIT:          0 MISS:          0
cpu0_DTLB PREFETCH     ACCESS:          0 HIT:          0 MISS:          0
cpu0_DTLB WRITE        ACCESS:          0 HIT:          0 MISS:          0
cpu0_DTLB TRANSLATION  ACCESS:          0 HIT:          0 MISS:          0
cpu0_DTLB PREFETCH REQUESTED:          0 ISSUED:          0 USEFUL:          0 USELESS:          0
cpu0_DTLB AVERAGE MISS LATENCY: 5.893 cycles
cpu0_ITLB TOTAL        ACCESS:       5550 HIT:       5332 MISS:        218
cpu0_ITLB LOAD         ACCESS:       5550 HIT:       5332 MISS:        218
cpu0_ITLB RFO          ACCESS:          0 HIT:          0 MISS:          0
cpu0_ITLB PREFETCH     ACCESS:          0 HIT:          0 MISS:          0
cpu0_ITLB WRITE        ACCESS:          0 HIT:          0 MISS:          0
cpu0_ITLB TRANSLATION  ACCESS:          0 HIT:          0 MISS:          0
cpu0_ITLB PREFETCH REQUESTED:          0 ISSUED:          0 USEFUL:          0 USELESS:          0
cpu0_ITLB AVERAGE MISS LATENCY: 6.459 cycles
cpu0_L1D TOTAL        ACCESS:  104627880 HIT:  102953082 MISS:    1674798
cpu0_L1D LOAD         ACCESS:   45410562 HIT:   45033564 MISS:     376998
cpu0_L1D RFO          ACCESS:          0 HIT:          0 MISS:          0
cpu0_L1D PREFETCH     ACCESS:          0 HIT:          0 MISS:          0
cpu0_L1D WRITE        ACCESS:   59217060 HIT:   57919265 MISS:    1297795
cpu0_L1D TRANSLATION  ACCESS:        258 HIT:        253 MISS:          5
cpu0_L1D PREFETCH REQUESTED:          0 ISSUED:          0 USEFUL:          0 USELESS:          0
cpu0_L1D AVERAGE MISS LATENCY: 18.03 cycles
cpu0_L1I TOTAL        ACCESS:       6314 HIT:       4056 MISS:       2258
cpu0_L1I LOAD         ACCESS:       6314 HIT:       4056 MISS:       2258
cpu0_L1I RFO          ACCESS:          0 HIT:          0 MISS:          0
cpu0_L1I PREFETCH     ACCESS:          0 HIT:          0 MISS:          0
cpu0_L1I WRITE        ACCESS:          0 HIT:          0 MISS:          0
cpu0_L1I TRANSLATION  ACCESS:          0 HIT:          0 MISS:          0
cpu0_L1I PREFETCH REQUESTED:          0 ISSUED:          0 USEFUL:          0 USELESS:          0
cpu0_L1I AVERAGE MISS LATENCY: 119.7 cycles
cpu0_L2C TOTAL        ACCESS:     265749 HIT:     106364 MISS:     159385
cpu0_L2C LOAD         ACCESS:      63736 HIT:       4291 MISS:      59445
cpu0_L2C RFO          ACCESS:     100743 HIT:        830 MISS:      99913
cpu0_L2C PREFETCH     ACCESS:          0 HIT:          0 MISS:          0
cpu0_L2C WRITE        ACCESS:     101265 HIT:     101243 MISS:         22
cpu0_L2C TRANSLATION  ACCESS:          5 HIT:          0 MISS:          5
cpu0_L2C PREFETCH REQUESTED:          0 ISSUED:          0 USEFUL:          0 USELESS:          0
cpu0_L2C AVERAGE MISS LATENCY: 220.3 cycles
cpu0_STLB TOTAL        ACCESS:       3914 HIT:       3657 MISS:        257
cpu0_STLB LOAD         ACCESS:       3914 HIT:       3657 MISS:        257
cpu0_STLB RFO          ACCESS:          0 HIT:          0 MISS:          0
cpu0_STLB PREFETCH     ACCESS:          0 HIT:          0 MISS:          0
cpu0_STLB WRITE        ACCESS:          0 HIT:          0 MISS:          0
cpu0_STLB TRANSLATION  ACCESS:          0 HIT:          0 MISS:          0
cpu0_STLB PREFETCH REQUESTED:          0 ISSUED:          0 USEFUL:          0 USELESS:          0
cpu0_STLB AVERAGE MISS LATENCY: 218.5 cycles

DRAM Statistics

Channel 0 RQ ROW_BUFFER_HIT:      46629
  ROW_BUFFER_MISS:      30155
 AVG DBUS CONGESTED CYCLE: 3.965
WQ ROW_BUFFER_HIT: Channel 0 
  ROW_BUFFER_MISS:      22817
  FULL:      24445
