WARNING: physical memory size is smaller than virtual memory size.

*** ChampSim Multicore Out-of-Order Simulator ***
Warmup Instructions: 50000000
Simulation Instructions: 600000000
Number of CPUs: 1
Page size: 4096

CPU 0 Tage branch predictor
Off-chip DRAM Size: 4 GiB Channels: 1 Width: 64-bit Data Race: 3200 MT/s
Heartbeat CPU 0 instructions: 10000000 cycles: 2565785 heartbeat IPC: 3.897 cumulative IPC: 3.897 (Simulation time: 00 hr 01 min 13 sec)
Heartbeat CPU 0 instructions: 20000000 cycles: 5131274 heartbeat IPC: 3.898 cumulative IPC: 3.898 (Simulation time: 00 hr 02 min 35 sec)
Heartbeat CPU 0 instructions: 30000000 cycles: 7631274 heartbeat IPC: 4 cumulative IPC: 3.931 (Simulation time: 00 hr 03 min 59 sec)
Heartbeat CPU 0 instructions: 40000000 cycles: 10131274 heartbeat IPC: 4 cumulative IPC: 3.948 (Simulation time: 00 hr 05 min 18 sec)
Heartbeat CPU 0 instructions: 50000000 cycles: 12631274 heartbeat IPC: 4 cumulative IPC: 3.958 (Simulation time: 00 hr 06 min 38 sec)
Warmup finished CPU 0 instructions: 50000000 cycles: 12631275 cumulative IPC: 3.958 (Simulation time: 00 hr 06 min 38 sec)
Warmup complete CPU 0 instructions: 50000000 cycles: 12631275 cumulative IPC: 3.958 (Simulation time: 00 hr 06 min 38 sec)
Heartbeat CPU 0 instructions: 60000002 cycles: 15446860 heartbeat IPC: 3.552 cumulative IPC: 3.552 (Simulation time: 00 hr 08 min 12 sec)
Heartbeat CPU 0 instructions: 70000001 cycles: 18261922 heartbeat IPC: 3.552 cumulative IPC: 3.552 (Simulation time: 00 hr 09 min 44 sec)
Heartbeat CPU 0 instructions: 80000004 cycles: 21079021 heartbeat IPC: 3.55 cumulative IPC: 3.551 (Simulation time: 00 hr 11 min 16 sec)
Heartbeat CPU 0 instructions: 90000000 cycles: 23893913 heartbeat IPC: 3.553 cumulative IPC: 3.552 (Simulation time: 00 hr 12 min 50 sec)
Heartbeat CPU 0 instructions: 100000003 cycles: 26710910 heartbeat IPC: 3.55 cumulative IPC: 3.551 (Simulation time: 00 hr 14 min 17 sec)
Heartbeat CPU 0 instructions: 110000000 cycles: 29526056 heartbeat IPC: 3.552 cumulative IPC: 3.551 (Simulation time: 00 hr 15 min 43 sec)
Heartbeat CPU 0 instructions: 120000002 cycles: 32340652 heartbeat IPC: 3.553 cumulative IPC: 3.552 (Simulation time: 00 hr 17 min 25 sec)
Heartbeat CPU 0 instructions: 130000001 cycles: 35155871 heartbeat IPC: 3.552 cumulative IPC: 3.552 (Simulation time: 00 hr 18 min 16 sec)
Heartbeat CPU 0 instructions: 140000002 cycles: 37970732 heartbeat IPC: 3.553 cumulative IPC: 3.552 (Simulation time: 00 hr 19 min 14 sec)
Heartbeat CPU 0 instructions: 150000000 cycles: 40786093 heartbeat IPC: 3.552 cumulative IPC: 3.552 (Simulation time: 00 hr 20 min 16 sec)
Heartbeat CPU 0 instructions: 160000002 cycles: 43603215 heartbeat IPC: 3.55 cumulative IPC: 3.552 (Simulation time: 00 hr 21 min 25 sec)
Heartbeat CPU 0 instructions: 170000000 cycles: 46419904 heartbeat IPC: 3.55 cumulative IPC: 3.551 (Simulation time: 00 hr 22 min 22 sec)
Heartbeat CPU 0 instructions: 180000003 cycles: 49235188 heartbeat IPC: 3.552 cumulative IPC: 3.552 (Simulation time: 00 hr 23 min 19 sec)
Heartbeat CPU 0 instructions: 190000001 cycles: 52051321 heartbeat IPC: 3.551 cumulative IPC: 3.551 (Simulation time: 00 hr 24 min 14 sec)
Heartbeat CPU 0 instructions: 200000001 cycles: 54867266 heartbeat IPC: 3.551 cumulative IPC: 3.551 (Simulation time: 00 hr 25 min 10 sec)
Heartbeat CPU 0 instructions: 210000004 cycles: 57683189 heartbeat IPC: 3.551 cumulative IPC: 3.551 (Simulation time: 00 hr 26 min 10 sec)
Heartbeat CPU 0 instructions: 220000002 cycles: 60498850 heartbeat IPC: 3.552 cumulative IPC: 3.551 (Simulation time: 00 hr 27 min 12 sec)
Heartbeat CPU 0 instructions: 230000001 cycles: 64047201 heartbeat IPC: 2.818 cumulative IPC: 3.501 (Simulation time: 00 hr 28 min 22 sec)
Heartbeat CPU 0 instructions: 240000003 cycles: 69489962 heartbeat IPC: 1.837 cumulative IPC: 3.342 (Simulation time: 00 hr 29 min 55 sec)
Heartbeat CPU 0 instructions: 250000003 cycles: 72305403 heartbeat IPC: 3.552 cumulative IPC: 3.352 (Simulation time: 00 hr 30 min 51 sec)
Heartbeat CPU 0 instructions: 260000002 cycles: 75119572 heartbeat IPC: 3.553 cumulative IPC: 3.361 (Simulation time: 00 hr 31 min 47 sec)
Heartbeat CPU 0 instructions: 270000004 cycles: 77934461 heartbeat IPC: 3.553 cumulative IPC: 3.369 (Simulation time: 00 hr 32 min 44 sec)
Heartbeat CPU 0 instructions: 280000001 cycles: 80750891 heartbeat IPC: 3.551 cumulative IPC: 3.376 (Simulation time: 00 hr 33 min 39 sec)
Heartbeat CPU 0 instructions: 290000002 cycles: 83566383 heartbeat IPC: 3.552 cumulative IPC: 3.383 (Simulation time: 00 hr 34 min 37 sec)
Heartbeat CPU 0 instructions: 300000004 cycles: 86382913 heartbeat IPC: 3.55 cumulative IPC: 3.39 (Simulation time: 00 hr 35 min 35 sec)
Heartbeat CPU 0 instructions: 310000002 cycles: 89199562 heartbeat IPC: 3.55 cumulative IPC: 3.396 (Simulation time: 00 hr 36 min 32 sec)
Heartbeat CPU 0 instructions: 320000000 cycles: 92016026 heartbeat IPC: 3.551 cumulative IPC: 3.401 (Simulation time: 00 hr 37 min 30 sec)
Heartbeat CPU 0 instructions: 330000004 cycles: 94832101 heartbeat IPC: 3.551 cumulative IPC: 3.406 (Simulation time: 00 hr 38 min 28 sec)
Heartbeat CPU 0 instructions: 340000000 cycles: 97648947 heartbeat IPC: 3.55 cumulative IPC: 3.411 (Simulation time: 00 hr 39 min 28 sec)
Heartbeat CPU 0 instructions: 350000003 cycles: 100464988 heartbeat IPC: 3.551 cumulative IPC: 3.416 (Simulation time: 00 hr 40 min 27 sec)
Heartbeat CPU 0 instructions: 360000003 cycles: 103281260 heartbeat IPC: 3.551 cumulative IPC: 3.42 (Simulation time: 00 hr 41 min 27 sec)
Heartbeat CPU 0 instructions: 370000003 cycles: 106098163 heartbeat IPC: 3.55 cumulative IPC: 3.424 (Simulation time: 00 hr 42 min 29 sec)
Heartbeat CPU 0 instructions: 380000003 cycles: 108913150 heartbeat IPC: 3.552 cumulative IPC: 3.427 (Simulation time: 00 hr 43 min 28 sec)
Heartbeat CPU 0 instructions: 390000000 cycles: 111728451 heartbeat IPC: 3.552 cumulative IPC: 3.431 (Simulation time: 00 hr 44 min 30 sec)
Heartbeat CPU 0 instructions: 400000002 cycles: 114545522 heartbeat IPC: 3.55 cumulative IPC: 3.434 (Simulation time: 00 hr 45 min 32 sec)
Heartbeat CPU 0 instructions: 410000004 cycles: 117361106 heartbeat IPC: 3.552 cumulative IPC: 3.437 (Simulation time: 00 hr 46 min 29 sec)
Heartbeat CPU 0 instructions: 420000001 cycles: 120178361 heartbeat IPC: 3.55 cumulative IPC: 3.44 (Simulation time: 00 hr 47 min 27 sec)
Heartbeat CPU 0 instructions: 430000001 cycles: 122993508 heartbeat IPC: 3.552 cumulative IPC: 3.443 (Simulation time: 00 hr 48 min 27 sec)
Heartbeat CPU 0 instructions: 440000002 cycles: 125809402 heartbeat IPC: 3.551 cumulative IPC: 3.446 (Simulation time: 00 hr 49 min 32 sec)
Heartbeat CPU 0 instructions: 450000001 cycles: 128938683 heartbeat IPC: 3.196 cumulative IPC: 3.439 (Simulation time: 00 hr 50 min 40 sec)
Heartbeat CPU 0 instructions: 460000002 cycles: 134334379 heartbeat IPC: 1.853 cumulative IPC: 3.369 (Simulation time: 00 hr 52 min 17 sec)
Heartbeat CPU 0 instructions: 470000004 cycles: 137151107 heartbeat IPC: 3.55 cumulative IPC: 3.373 (Simulation time: 00 hr 53 min 15 sec)
Heartbeat CPU 0 instructions: 480000000 cycles: 139967192 heartbeat IPC: 3.551 cumulative IPC: 3.377 (Simulation time: 00 hr 54 min 11 sec)
Heartbeat CPU 0 instructions: 490000000 cycles: 142783853 heartbeat IPC: 3.55 cumulative IPC: 3.381 (Simulation time: 00 hr 55 min 10 sec)
Heartbeat CPU 0 instructions: 500000002 cycles: 145599362 heartbeat IPC: 3.552 cumulative IPC: 3.384 (Simulation time: 00 hr 56 min 14 sec)
Heartbeat CPU 0 instructions: 510000001 cycles: 148414860 heartbeat IPC: 3.552 cumulative IPC: 3.388 (Simulation time: 00 hr 57 min 23 sec)
Heartbeat CPU 0 instructions: 520000003 cycles: 151230982 heartbeat IPC: 3.551 cumulative IPC: 3.391 (Simulation time: 00 hr 58 min 28 sec)
Heartbeat CPU 0 instructions: 530000002 cycles: 154047008 heartbeat IPC: 3.551 cumulative IPC: 3.394 (Simulation time: 00 hr 59 min 34 sec)
Heartbeat CPU 0 instructions: 540000000 cycles: 156862791 heartbeat IPC: 3.551 cumulative IPC: 3.397 (Simulation time: 01 hr 00 min 36 sec)
Heartbeat CPU 0 instructions: 550000000 cycles: 159677696 heartbeat IPC: 3.553 cumulative IPC: 3.4 (Simulation time: 01 hr 01 min 38 sec)
Heartbeat CPU 0 instructions: 560000001 cycles: 162493603 heartbeat IPC: 3.551 cumulative IPC: 3.403 (Simulation time: 01 hr 02 min 38 sec)
Heartbeat CPU 0 instructions: 570000001 cycles: 165310562 heartbeat IPC: 3.55 cumulative IPC: 3.406 (Simulation time: 01 hr 03 min 40 sec)
Heartbeat CPU 0 instructions: 580000002 cycles: 168127273 heartbeat IPC: 3.55 cumulative IPC: 3.408 (Simulation time: 01 hr 04 min 48 sec)
Heartbeat CPU 0 instructions: 590000003 cycles: 170942412 heartbeat IPC: 3.552 cumulative IPC: 3.411 (Simulation time: 01 hr 05 min 52 sec)
*** Reached end of trace: (0, "traces/l1l2cache.champsimtrace")
Heartbeat CPU 0 instructions: 600000001 cycles: 173759418 heartbeat IPC: 3.55 cumulative IPC: 3.413 (Simulation time: 01 hr 06 min 51 sec)
Heartbeat CPU 0 instructions: 610000001 cycles: 177086049 heartbeat IPC: 3.006 cumulative IPC: 3.405 (Simulation time: 01 hr 08 min 08 sec)
Heartbeat CPU 0 instructions: 620000004 cycles: 179714726 heartbeat IPC: 3.804 cumulative IPC: 3.411 (Simulation time: 01 hr 09 min 24 sec)
Heartbeat CPU 0 instructions: 630000004 cycles: 182529496 heartbeat IPC: 3.553 cumulative IPC: 3.414 (Simulation time: 01 hr 10 min 28 sec)
Heartbeat CPU 0 instructions: 640000000 cycles: 185345513 heartbeat IPC: 3.551 cumulative IPC: 3.416 (Simulation time: 01 hr 11 min 32 sec)
Heartbeat CPU 0 instructions: 650000004 cycles: 188160900 heartbeat IPC: 3.552 cumulative IPC: 3.418 (Simulation time: 01 hr 12 min 33 sec)
Simulation finished CPU 0 instructions: 600000004 cycles: 175529626 cumulative IPC: 3.418 (Simulation time: 01 hr 12 min 33 sec)
Simulation complete CPU 0 instructions: 600000004 cycles: 175529626 cumulative IPC: 3.418 (Simulation time: 01 hr 12 min 33 sec)

ChampSim completed all CPUs

=== Simulation ===
CPU 0 runs traces/l1l2cache.champsimtrace
Region of Interest Statistics

CPU 0 cumulative IPC: 3.418 instructions: 600000004 cycles: 175529626
CPU 0 Branch Prediction Accuracy: 97.76% MPKI: 1.901 Average ROB Occupancy at Mispredict: 151.3
Branch type MPKI
BRANCH_DIRECT_JUMP: 9.5e-05
BRANCH_INDIRECT: 0.000282
BRANCH_CONDITIONAL: 1.9
BRANCH_DIRECT_CALL: 3.33e-06
BRANCH_INDIRECT_CALL: 4.83e-05
BRANCH_RETURN: 3.33e-05

LLC TOTAL        ACCESS:     319106 HIT:     172383 MISS:     146723
LLC LOAD         ACCESS:      59445 HIT:      38342 MISS:      21103
LLC RFO          ACCESS:      99913 HIT:      47916 MISS:      51997
LLC PREFETCH     ACCESS:      59445 HIT:      33813 MISS:      25632
LLC WRITE        ACCESS:     100298 HIT:      52311 MISS:      47987
LLC TRANSLATION  ACCESS:          5 HIT:          1 MISS:          4
LLC PREFETCH REQUESTED:      59445 ISSUED:      59445 USEFUL:      24073 USELESS:       1840
LLC AVERAGE MISS LATENCY: 291.5 cycles
cpu0_DTLB TOTAL        ACCESS:   78743623 HIT:   78732681 MISS:      10942
cpu0_DTLB LOAD         ACCESS:   78743623 HIT:   78732681 MISS:      10942
cpu0_DTLB RFO          ACCESS:          0 HIT:          0 MISS:          0
cpu0_DTLB PREFETCH     ACCESS:          0 HIT:          0 MISS:          0
cpu0_DTLB WRITE        ACCESS:          0 HIT:          0 MISS:          0
cpu0_DTLB TRANSLATION  ACCESS:          0 HIT:          0 MISS:          0
cpu0_DTLB PREFETCH REQUESTED:          0 ISSUED:          0 USEFUL:          0 USELESS:          0
cpu0_DTLB AVERAGE MISS LATENCY: 5.777 cycles
cpu0_ITLB TOTAL        ACCESS:       5606 HIT:       5359 MISS:        247
cpu0_ITLB LOAD         ACCESS:       5606 HIT:       5359 MISS:        247
cpu0_ITLB RFO          ACCESS:          0 HIT:          0 MISS:          0
cpu0_ITLB PREFETCH     ACCESS:          0 HIT:          0 MISS:          0
cpu0_ITLB WRITE        ACCESS:          0 HIT:          0 MISS:          0
cpu0_ITLB TRANSLATION  ACCESS:          0 HIT:          0 MISS:          0
cpu0_ITLB PREFETCH REQUESTED:          0 ISSUED:          0 USEFUL:          0 USELESS:          0
cpu0_ITLB AVERAGE MISS LATENCY: 5.555 cycles
cpu0_L1D TOTAL        ACCESS:   97804533 HIT:   96035313 MISS:    1769220
cpu0_L1D LOAD         ACCESS:   38677890 HIT:   38211789 MISS:     466101
cpu0_L1D RFO          ACCESS:          0 HIT:          0 MISS:          0
cpu0_L1D PREFETCH     ACCESS:          0 HIT:          0 MISS:          0
cpu0_L1D WRITE        ACCESS:   59126385 HIT:   57823271 MISS:    1303114
cpu0_L1D TRANSLATION  ACCESS:        258 HIT:        253 MISS:          5
cpu0_L1D PREFETCH REQUESTED:          0 ISSUED:          0 USEFUL:          0 USELESS:          0
cpu0_L1D AVERAGE MISS LATENCY: 20.92 cycles
cpu0_L1I TOTAL        ACCESS:       6395 HIT:       4003 MISS:       2392
cpu0_L1I LOAD         ACCESS:       6395 HIT:       4003 MISS:       2392
cpu0_L1I RFO          ACCESS:          0 HIT:          0 MISS:          0
cpu0_L1I PREFETCH     ACCESS:          0 HIT:          0 MISS:          0
cpu0_L1I WRITE        ACCESS:          0 HIT:          0 MISS:          0
cpu0_L1I TRANSLATION  ACCESS:          0 HIT:          0 MISS:          0
cpu0_L1I PREFETCH REQUESTED:          0 ISSUED:          0 USEFUL:          0 USELESS:          0
cpu0_L1I AVERAGE MISS LATENCY: 134.6 cycles
cpu0_L2C TOTAL        ACCESS:     265749 HIT:     106366 MISS:     159383
cpu0_L2C LOAD         ACCESS:      63737 HIT:       4292 MISS:      59445
cpu0_L2C RFO          ACCESS:     100744 HIT:        831 MISS:      99913
cpu0_L2C PREFETCH     ACCESS:          0 HIT:          0 MISS:          0
cpu0_L2C WRITE        ACCESS:     101263 HIT:     101243 MISS:         20
cpu0_L2C TRANSLATION  ACCESS:          5 HIT:          0 MISS:          5
cpu0_L2C PREFETCH REQUESTED:          0 ISSUED:          0 USEFUL:          0 USELESS:          0
cpu0_L2C AVERAGE MISS LATENCY: 267 cycles
cpu0_STLB TOTAL        ACCESS:       3912 HIT:       3655 MISS:        257
cpu0_STLB LOAD         ACCESS:       3912 HIT:       3655 MISS:        257
cpu0_STLB RFO          ACCESS:          0 HIT:          0 MISS:          0
cpu0_STLB PREFETCH     ACCESS:          0 HIT:          0 MISS:          0
cpu0_STLB WRITE        ACCESS:          0 HIT:          0 MISS:          0
cpu0_STLB TRANSLATION  ACCESS:          0 HIT:          0 MISS:          0
cpu0_STLB PREFETCH REQUESTED:          0 ISSUED:          0 USEFUL:          0 USELESS:          0
cpu0_STLB AVERAGE MISS LATENCY: 216.6 cycles

DRAM Statistics

Channel 0 RQ ROW_BUFFER_HIT:      43364
  ROW_BUFFER_MISS:      35470
 AVG DBUS CONGESTED CYCLE: 3.954
WQ ROW_BUFFER_HIT: Channel 0 
  ROW_BUFFER_MISS:      23644
  FULL:      25136
