WARNING: physical memory size is smaller than virtual memory size.

*** ChampSim Multicore Out-of-Order Simulator ***
Warmup Instructions: 50000000
Simulation Instructions: 600000000
Number of CPUs: 1
Page size: 4096

Off-chip DRAM Size: 4 GiB Channels: 1 Width: 64-bit Data Race: 3200 MT/s
Heartbeat CPU 0 instructions: 10000000 cycles: 2565785 heartbeat IPC: 3.897 cumulative IPC: 3.897 (Simulation time: 00 hr 00 min 40 sec)
Heartbeat CPU 0 instructions: 20000000 cycles: 5131274 heartbeat IPC: 3.898 cumulative IPC: 3.898 (Simulation time: 00 hr 01 min 18 sec)
Heartbeat CPU 0 instructions: 30000000 cycles: 7631274 heartbeat IPC: 4 cumulative IPC: 3.931 (Simulation time: 00 hr 01 min 53 sec)
Heartbeat CPU 0 instructions: 40000000 cycles: 10131274 heartbeat IPC: 4 cumulative IPC: 3.948 (Simulation time: 00 hr 02 min 26 sec)
Heartbeat CPU 0 instructions: 50000000 cycles: 12631274 heartbeat IPC: 4 cumulative IPC: 3.958 (Simulation time: 00 hr 02 min 58 sec)
Warmup finished CPU 0 instructions: 50000000 cycles: 12631275 cumulative IPC: 3.958 (Simulation time: 00 hr 02 min 58 sec)
Warmup complete CPU 0 instructions: 50000000 cycles: 12631275 cumulative IPC: 3.958 (Simulation time: 00 hr 02 min 58 sec)
Heartbeat CPU 0 instructions: 60000000 cycles: 16058852 heartbeat IPC: 2.918 cumulative IPC: 2.918 (Simulation time: 00 hr 03 min 37 sec)
Heartbeat CPU 0 instructions: 70000000 cycles: 19488286 heartbeat IPC: 2.916 cumulative IPC: 2.917 (Simulation time: 00 hr 04 min 17 sec)
Heartbeat CPU 0 instructions: 80000004 cycles: 22914704 heartbeat IPC: 2.919 cumulative IPC: 2.917 (Simulation time: 00 hr 04 min 59 sec)
Heartbeat CPU 0 instructions: 90000000 cycles: 26342392 heartbeat IPC: 2.917 cumulative IPC: 2.917 (Simulation time: 00 hr 05 min 40 sec)
Heartbeat CPU 0 instructions: 100000003 cycles: 29773619 heartbeat IPC: 2.914 cumulative IPC: 2.917 (Simulation time: 00 hr 06 min 27 sec)
Heartbeat CPU 0 instructions: 110000000 cycles: 33199684 heartbeat IPC: 2.919 cumulative IPC: 2.917 (Simulation time: 00 hr 07 min 15 sec)
Heartbeat CPU 0 instructions: 120000001 cycles: 36624207 heartbeat IPC: 2.92 cumulative IPC: 2.918 (Simulation time: 00 hr 08 min 21 sec)
Heartbeat CPU 0 instructions: 130000001 cycles: 40050788 heartbeat IPC: 2.918 cumulative IPC: 2.918 (Simulation time: 00 hr 09 min 51 sec)
Heartbeat CPU 0 instructions: 140000002 cycles: 43477136 heartbeat IPC: 2.919 cumulative IPC: 2.918 (Simulation time: 00 hr 11 min 19 sec)
Heartbeat CPU 0 instructions: 150000000 cycles: 46902215 heartbeat IPC: 2.92 cumulative IPC: 2.918 (Simulation time: 00 hr 12 min 57 sec)
Heartbeat CPU 0 instructions: 160000002 cycles: 50328722 heartbeat IPC: 2.918 cumulative IPC: 2.918 (Simulation time: 00 hr 14 min 34 sec)
Heartbeat CPU 0 instructions: 170000000 cycles: 53756209 heartbeat IPC: 2.918 cumulative IPC: 2.918 (Simulation time: 00 hr 16 min 07 sec)
Heartbeat CPU 0 instructions: 180000004 cycles: 57182235 heartbeat IPC: 2.919 cumulative IPC: 2.918 (Simulation time: 00 hr 17 min 47 sec)
Heartbeat CPU 0 instructions: 190000001 cycles: 60608942 heartbeat IPC: 2.918 cumulative IPC: 2.918 (Simulation time: 00 hr 19 min 36 sec)
Heartbeat CPU 0 instructions: 200000001 cycles: 64034698 heartbeat IPC: 2.919 cumulative IPC: 2.918 (Simulation time: 00 hr 21 min 23 sec)
Heartbeat CPU 0 instructions: 210000004 cycles: 67460593 heartbeat IPC: 2.919 cumulative IPC: 2.918 (Simulation time: 00 hr 22 min 59 sec)
Heartbeat CPU 0 instructions: 220000002 cycles: 70888099 heartbeat IPC: 2.918 cumulative IPC: 2.918 (Simulation time: 00 hr 24 min 39 sec)
Heartbeat CPU 0 instructions: 230000001 cycles: 74223876 heartbeat IPC: 2.998 cumulative IPC: 2.922 (Simulation time: 00 hr 26 min 26 sec)
Heartbeat CPU 0 instructions: 240000003 cycles: 76967851 heartbeat IPC: 3.644 cumulative IPC: 2.953 (Simulation time: 00 hr 28 min 13 sec)
Heartbeat CPU 0 instructions: 250000003 cycles: 80401526 heartbeat IPC: 2.912 cumulative IPC: 2.951 (Simulation time: 00 hr 29 min 49 sec)
Heartbeat CPU 0 instructions: 260000000 cycles: 83828264 heartbeat IPC: 2.918 cumulative IPC: 2.95 (Simulation time: 00 hr 31 min 21 sec)
Heartbeat CPU 0 instructions: 270000004 cycles: 87254259 heartbeat IPC: 2.919 cumulative IPC: 2.948 (Simulation time: 00 hr 32 min 10 sec)
Heartbeat CPU 0 instructions: 280000000 cycles: 90682086 heartbeat IPC: 2.917 cumulative IPC: 2.947 (Simulation time: 00 hr 32 min 57 sec)
Heartbeat CPU 0 instructions: 290000002 cycles: 94110221 heartbeat IPC: 2.917 cumulative IPC: 2.946 (Simulation time: 00 hr 33 min 50 sec)
Heartbeat CPU 0 instructions: 300000004 cycles: 97533787 heartbeat IPC: 2.921 cumulative IPC: 2.945 (Simulation time: 00 hr 34 min 40 sec)
Heartbeat CPU 0 instructions: 310000002 cycles: 100961910 heartbeat IPC: 2.917 cumulative IPC: 2.943 (Simulation time: 00 hr 35 min 31 sec)
Heartbeat CPU 0 instructions: 320000000 cycles: 104389720 heartbeat IPC: 2.917 cumulative IPC: 2.943 (Simulation time: 00 hr 36 min 20 sec)
Heartbeat CPU 0 instructions: 330000004 cycles: 107816469 heartbeat IPC: 2.918 cumulative IPC: 2.942 (Simulation time: 00 hr 37 min 12 sec)
Heartbeat CPU 0 instructions: 340000000 cycles: 111243726 heartbeat IPC: 2.918 cumulative IPC: 2.941 (Simulation time: 00 hr 38 min 09 sec)
Heartbeat CPU 0 instructions: 350000003 cycles: 114672647 heartbeat IPC: 2.916 cumulative IPC: 2.94 (Simulation time: 00 hr 39 min 02 sec)
Heartbeat CPU 0 instructions: 360000003 cycles: 118100295 heartbeat IPC: 2.917 cumulative IPC: 2.939 (Simulation time: 00 hr 39 min 52 sec)
Heartbeat CPU 0 instructions: 370000004 cycles: 121526687 heartbeat IPC: 2.919 cumulative IPC: 2.939 (Simulation time: 00 hr 40 min 39 sec)
Heartbeat CPU 0 instructions: 380000003 cycles: 124952221 heartbeat IPC: 2.919 cumulative IPC: 2.938 (Simulation time: 00 hr 41 min 27 sec)
Heartbeat CPU 0 instructions: 390000000 cycles: 128373200 heartbeat IPC: 2.923 cumulative IPC: 2.938 (Simulation time: 00 hr 42 min 17 sec)
Heartbeat CPU 0 instructions: 400000002 cycles: 131800580 heartbeat IPC: 2.918 cumulative IPC: 2.937 (Simulation time: 00 hr 43 min 10 sec)
Heartbeat CPU 0 instructions: 410000003 cycles: 135228076 heartbeat IPC: 2.918 cumulative IPC: 2.936 (Simulation time: 00 hr 44 min 00 sec)
Heartbeat CPU 0 instructions: 420000001 cycles: 138655904 heartbeat IPC: 2.917 cumulative IPC: 2.936 (Simulation time: 00 hr 44 min 48 sec)
Heartbeat CPU 0 instructions: 430000001 cycles: 142084654 heartbeat IPC: 2.917 cumulative IPC: 2.935 (Simulation time: 00 hr 45 min 34 sec)
Heartbeat CPU 0 instructions: 440000002 cycles: 145509214 heartbeat IPC: 2.92 cumulative IPC: 2.935 (Simulation time: 00 hr 46 min 23 sec)
Heartbeat CPU 0 instructions: 450000001 cycles: 148280406 heartbeat IPC: 3.609 cumulative IPC: 2.949 (Simulation time: 00 hr 47 min 11 sec)
Heartbeat CPU 0 instructions: 460000002 cycles: 151013724 heartbeat IPC: 3.659 cumulative IPC: 2.963 (Simulation time: 00 hr 48 min 03 sec)
Heartbeat CPU 0 instructions: 470000004 cycles: 154437034 heartbeat IPC: 2.921 cumulative IPC: 2.962 (Simulation time: 00 hr 48 min 52 sec)
Heartbeat CPU 0 instructions: 480000000 cycles: 157865261 heartbeat IPC: 2.917 cumulative IPC: 2.961 (Simulation time: 00 hr 49 min 39 sec)
Heartbeat CPU 0 instructions: 490000000 cycles: 161290636 heartbeat IPC: 2.919 cumulative IPC: 2.96 (Simulation time: 00 hr 50 min 27 sec)
Heartbeat CPU 0 instructions: 500000002 cycles: 164717398 heartbeat IPC: 2.918 cumulative IPC: 2.959 (Simulation time: 00 hr 51 min 12 sec)
Heartbeat CPU 0 instructions: 510000001 cycles: 168146331 heartbeat IPC: 2.916 cumulative IPC: 2.958 (Simulation time: 00 hr 51 min 58 sec)
Heartbeat CPU 0 instructions: 520000003 cycles: 171571662 heartbeat IPC: 2.919 cumulative IPC: 2.957 (Simulation time: 00 hr 52 min 43 sec)
Heartbeat CPU 0 instructions: 530000002 cycles: 174995532 heartbeat IPC: 2.921 cumulative IPC: 2.956 (Simulation time: 00 hr 53 min 28 sec)
Heartbeat CPU 0 instructions: 540000000 cycles: 178424231 heartbeat IPC: 2.917 cumulative IPC: 2.955 (Simulation time: 00 hr 54 min 15 sec)
Heartbeat CPU 0 instructions: 550000000 cycles: 181850472 heartbeat IPC: 2.919 cumulative IPC: 2.955 (Simulation time: 00 hr 55 min 05 sec)
Heartbeat CPU 0 instructions: 560000001 cycles: 185275221 heartbeat IPC: 2.92 cumulative IPC: 2.954 (Simulation time: 00 hr 55 min 56 sec)
Heartbeat CPU 0 instructions: 570000001 cycles: 188700703 heartbeat IPC: 2.919 cumulative IPC: 2.953 (Simulation time: 00 hr 56 min 42 sec)
Heartbeat CPU 0 instructions: 580000000 cycles: 192130492 heartbeat IPC: 2.916 cumulative IPC: 2.953 (Simulation time: 00 hr 57 min 30 sec)
Heartbeat CPU 0 instructions: 590000003 cycles: 195556877 heartbeat IPC: 2.919 cumulative IPC: 2.952 (Simulation time: 00 hr 58 min 31 sec)
*** Reached end of trace: (0, "traces/l1l2cache.champsimtrace")
Heartbeat CPU 0 instructions: 600000001 cycles: 198985013 heartbeat IPC: 2.917 cumulative IPC: 2.951 (Simulation time: 00 hr 59 min 25 sec)
Heartbeat CPU 0 instructions: 610000000 cycles: 205191923 heartbeat IPC: 1.611 cumulative IPC: 2.908 (Simulation time: 01 hr 00 min 45 sec)
Heartbeat CPU 0 instructions: 620000004 cycles: 207944127 heartbeat IPC: 3.633 cumulative IPC: 2.918 (Simulation time: 01 hr 01 min 43 sec)
Heartbeat CPU 0 instructions: 630000004 cycles: 211367203 heartbeat IPC: 2.921 cumulative IPC: 2.918 (Simulation time: 01 hr 02 min 39 sec)
Heartbeat CPU 0 instructions: 640000000 cycles: 214792131 heartbeat IPC: 2.92 cumulative IPC: 2.918 (Simulation time: 01 hr 03 min 40 sec)
Heartbeat CPU 0 instructions: 650000004 cycles: 218221535 heartbeat IPC: 2.916 cumulative IPC: 2.918 (Simulation time: 01 hr 04 min 29 sec)
Simulation finished CPU 0 instructions: 600000004 cycles: 205590261 cumulative IPC: 2.918 (Simulation time: 01 hr 04 min 29 sec)
Simulation complete CPU 0 instructions: 600000004 cycles: 205590261 cumulative IPC: 2.918 (Simulation time: 01 hr 04 min 29 sec)

ChampSim completed all CPUs

=== Simulation ===
CPU 0 runs traces/l1l2cache.champsimtrace
Region of Interest Statistics

CPU 0 cumulative IPC: 2.918 instructions: 600000004 cycles: 205590261
CPU 0 Branch Prediction Accuracy: 93.04% MPKI: 5.913 Average ROB Occupancy at Mispredict: 67.88
Branch type MPKI
BRANCH_DIRECT_JUMP: 9.5e-05
BRANCH_INDIRECT: 0.000282
BRANCH_CONDITIONAL: 5.91
BRANCH_DIRECT_CALL: 3.33e-06
BRANCH_INDIRECT_CALL: 4.83e-05
BRANCH_RETURN: 3.33e-05

LLC TOTAL        ACCESS:     259669 HIT:     213209 MISS:      46460
LLC LOAD         ACCESS:      59445 HIT:      49678 MISS:       9767
LLC RFO          ACCESS:      99913 HIT:      78018 MISS:      21895
LLC PREFETCH     ACCESS:          0 HIT:          0 MISS:          0
LLC WRITE        ACCESS:     100306 HIT:      85513 MISS:      14793
LLC TRANSLATION  ACCESS:          5 HIT:          0 MISS:          5
LLC PREFETCH REQUESTED:          0 ISSUED:          0 USEFUL:          0 USELESS:          0
LLC AVERAGE MISS LATENCY: 356.8 cycles
cpu0_DTLB TOTAL        ACCESS:   82446587 HIT:   82435734 MISS:      10853
cpu0_DTLB LOAD         ACCESS:   82446587 HIT:   82435734 MISS:      10853
cpu0_DTLB RFO          ACCESS:          0 HIT:          0 MISS:          0
cpu0_DTLB PREFETCH     ACCESS:          0 HIT:          0 MISS:          0
cpu0_DTLB WRITE        ACCESS:          0 HIT:          0 MISS:          0
cpu0_DTLB TRANSLATION  ACCESS:          0 HIT:          0 MISS:          0
cpu0_DTLB PREFETCH REQUESTED:          0 ISSUED:          0 USEFUL:          0 USELESS:          0
cpu0_DTLB AVERAGE MISS LATENCY: 5.884 cycles
cpu0_ITLB TOTAL        ACCESS:       5579 HIT:       5361 MISS:        218
cpu0_ITLB LOAD         ACCESS:       5579 HIT:       5361 MISS:        218
cpu0_ITLB RFO          ACCESS:          0 HIT:          0 MISS:          0
cpu0_ITLB PREFETCH     ACCESS:          0 HIT:          0 MISS:          0
cpu0_ITLB WRITE        ACCESS:          0 HIT:          0 MISS:          0
cpu0_ITLB TRANSLATION  ACCESS:          0 HIT:          0 MISS:          0
cpu0_ITLB PREFETCH REQUESTED:          0 ISSUED:          0 USEFUL:          0 USELESS:          0
cpu0_ITLB AVERAGE MISS LATENCY: 6.459 cycles
cpu0_L1D TOTAL        ACCESS:  104752057 HIT:  103322541 MISS:    1429516
cpu0_L1D LOAD         ACCESS:   45439229 HIT:   45086937 MISS:     352292
cpu0_L1D RFO          ACCESS:          0 HIT:          0 MISS:          0
cpu0_L1D PREFETCH     ACCESS:          0 HIT:          0 MISS:          0
cpu0_L1D WRITE        ACCESS:   59312570 HIT:   58235351 MISS:    1077219
cpu0_L1D TRANSLATION  ACCESS:        258 HIT:        253 MISS:          5
cpu0_L1D PREFETCH REQUESTED:          0 ISSUED:          0 USEFUL:          0 USELESS:          0
cpu0_L1D AVERAGE MISS LATENCY: 10.47 cycles
cpu0_L1I TOTAL        ACCESS:       6342 HIT:       4040 MISS:       2302
cpu0_L1I LOAD         ACCESS:       6342 HIT:       4040 MISS:       2302
cpu0_L1I RFO          ACCESS:          0 HIT:          0 MISS:          0
cpu0_L1I PREFETCH     ACCESS:          0 HIT:          0 MISS:          0
cpu0_L1I WRITE        ACCESS:          0 HIT:          0 MISS:          0
cpu0_L1I TRANSLATION  ACCESS:          0 HIT:          0 MISS:          0
cpu0_L1I PREFETCH REQUESTED:          0 ISSUED:          0 USEFUL:          0 USELESS:          0
cpu0_L1I AVERAGE MISS LATENCY: 598.7 cycles
cpu0_L2C TOTAL        ACCESS:     265736 HIT:     106350 MISS:     159386
cpu0_L2C LOAD         ACCESS:      63734 HIT:       4289 MISS:      59445
cpu0_L2C RFO          ACCESS:     100733 HIT:        820 MISS:      99913
cpu0_L2C PREFETCH     ACCESS:          0 HIT:          0 MISS:          0
cpu0_L2C WRITE        ACCESS:     101264 HIT:     101241 MISS:         23
cpu0_L2C TRANSLATION  ACCESS:          5 HIT:          0 MISS:          5
cpu0_L2C PREFETCH REQUESTED:          0 ISSUED:          0 USEFUL:          0 USELESS:          0
cpu0_L2C AVERAGE MISS LATENCY: 124.2 cycles
cpu0_STLB TOTAL        ACCESS:       3913 HIT:       3656 MISS:        257
cpu0_STLB LOAD         ACCESS:       3913 HIT:       3656 MISS:        257
cpu0_STLB RFO          ACCESS:          0 HIT:          0 MISS:          0
cpu0_STLB PREFETCH     ACCESS:          0 HIT:          0 MISS:          0
cpu0_STLB WRITE        ACCESS:          0 HIT:          0 MISS:          0
cpu0_STLB TRANSLATION  ACCESS:          0 HIT:          0 MISS:          0
cpu0_STLB PREFETCH REQUESTED:          0 ISSUED:          0 USEFUL:          0 USELESS:          0
cpu0_STLB AVERAGE MISS LATENCY: 218.5 cycles

DRAM Statistics

Channel 0 RQ ROW_BUFFER_HIT:      17649
  ROW_BUFFER_MISS:      14012
 AVG DBUS CONGESTED CYCLE: 3.94
WQ ROW_BUFFER_HIT: Channel 0 
  ROW_BUFFER_MISS:       2994
  FULL:       7579
