WARNING: physical memory size is smaller than virtual memory size.

*** ChampSim Multicore Out-of-Order Simulator ***
Warmup Instructions: 50000000
Simulation Instructions: 600000000
Number of CPUs: 1
Page size: 4096

CPU 0 Tage branch predictor
Off-chip DRAM Size: 4 GiB Channels: 1 Width: 64-bit Data Race: 3200 MT/s
Heartbeat CPU 0 instructions: 10000002 cycles: 2565786 heartbeat IPC: 3.897 cumulative IPC: 3.897 (Simulation time: 00 hr 01 min 00 sec)
Heartbeat CPU 0 instructions: 20000000 cycles: 5131275 heartbeat IPC: 3.898 cumulative IPC: 3.898 (Simulation time: 00 hr 01 min 59 sec)
Heartbeat CPU 0 instructions: 30000000 cycles: 7631275 heartbeat IPC: 4 cumulative IPC: 3.931 (Simulation time: 00 hr 02 min 50 sec)
Heartbeat CPU 0 instructions: 40000000 cycles: 10131275 heartbeat IPC: 4 cumulative IPC: 3.948 (Simulation time: 00 hr 03 min 45 sec)
Heartbeat CPU 0 instructions: 50000000 cycles: 12631275 heartbeat IPC: 4 cumulative IPC: 3.958 (Simulation time: 00 hr 04 min 44 sec)
Warmup finished CPU 0 instructions: 50000000 cycles: 12631276 cumulative IPC: 3.958 (Simulation time: 00 hr 04 min 44 sec)
Warmup complete CPU 0 instructions: 50000000 cycles: 12631276 cumulative IPC: 3.958 (Simulation time: 00 hr 04 min 44 sec)
Heartbeat CPU 0 instructions: 60000002 cycles: 15446861 heartbeat IPC: 3.552 cumulative IPC: 3.552 (Simulation time: 00 hr 05 min 42 sec)
Heartbeat CPU 0 instructions: 70000001 cycles: 18261923 heartbeat IPC: 3.552 cumulative IPC: 3.552 (Simulation time: 00 hr 06 min 49 sec)
Heartbeat CPU 0 instructions: 80000004 cycles: 21079022 heartbeat IPC: 3.55 cumulative IPC: 3.551 (Simulation time: 00 hr 07 min 50 sec)
Heartbeat CPU 0 instructions: 90000000 cycles: 23893914 heartbeat IPC: 3.553 cumulative IPC: 3.552 (Simulation time: 00 hr 08 min 49 sec)
Heartbeat CPU 0 instructions: 100000003 cycles: 26710911 heartbeat IPC: 3.55 cumulative IPC: 3.551 (Simulation time: 00 hr 09 min 49 sec)
Heartbeat CPU 0 instructions: 110000000 cycles: 29526057 heartbeat IPC: 3.552 cumulative IPC: 3.551 (Simulation time: 00 hr 10 min 53 sec)
Heartbeat CPU 0 instructions: 120000002 cycles: 32340653 heartbeat IPC: 3.553 cumulative IPC: 3.552 (Simulation time: 00 hr 11 min 52 sec)
Heartbeat CPU 0 instructions: 130000001 cycles: 35155872 heartbeat IPC: 3.552 cumulative IPC: 3.552 (Simulation time: 00 hr 12 min 51 sec)
Heartbeat CPU 0 instructions: 140000002 cycles: 37970733 heartbeat IPC: 3.553 cumulative IPC: 3.552 (Simulation time: 00 hr 13 min 53 sec)
Heartbeat CPU 0 instructions: 150000000 cycles: 40786094 heartbeat IPC: 3.552 cumulative IPC: 3.552 (Simulation time: 00 hr 15 min 02 sec)
Heartbeat CPU 0 instructions: 160000002 cycles: 43603216 heartbeat IPC: 3.55 cumulative IPC: 3.552 (Simulation time: 00 hr 16 min 05 sec)
Heartbeat CPU 0 instructions: 170000000 cycles: 46419905 heartbeat IPC: 3.55 cumulative IPC: 3.551 (Simulation time: 00 hr 17 min 08 sec)
Heartbeat CPU 0 instructions: 180000003 cycles: 49235189 heartbeat IPC: 3.552 cumulative IPC: 3.552 (Simulation time: 00 hr 18 min 07 sec)
Heartbeat CPU 0 instructions: 190000001 cycles: 52051322 heartbeat IPC: 3.551 cumulative IPC: 3.551 (Simulation time: 00 hr 19 min 06 sec)
Heartbeat CPU 0 instructions: 200000001 cycles: 54867267 heartbeat IPC: 3.551 cumulative IPC: 3.551 (Simulation time: 00 hr 20 min 04 sec)
Heartbeat CPU 0 instructions: 210000004 cycles: 57683190 heartbeat IPC: 3.551 cumulative IPC: 3.551 (Simulation time: 00 hr 21 min 01 sec)
Heartbeat CPU 0 instructions: 220000002 cycles: 60498851 heartbeat IPC: 3.552 cumulative IPC: 3.551 (Simulation time: 00 hr 22 min 00 sec)
Heartbeat CPU 0 instructions: 230000001 cycles: 63859298 heartbeat IPC: 2.976 cumulative IPC: 3.514 (Simulation time: 00 hr 23 min 09 sec)
Heartbeat CPU 0 instructions: 240000003 cycles: 67639200 heartbeat IPC: 2.646 cumulative IPC: 3.454 (Simulation time: 00 hr 24 min 26 sec)
Heartbeat CPU 0 instructions: 250000003 cycles: 70454641 heartbeat IPC: 3.552 cumulative IPC: 3.459 (Simulation time: 00 hr 25 min 25 sec)
Heartbeat CPU 0 instructions: 260000002 cycles: 73268810 heartbeat IPC: 3.553 cumulative IPC: 3.463 (Simulation time: 00 hr 26 min 24 sec)
Heartbeat CPU 0 instructions: 270000004 cycles: 76083699 heartbeat IPC: 3.553 cumulative IPC: 3.467 (Simulation time: 00 hr 27 min 22 sec)
Heartbeat CPU 0 instructions: 280000001 cycles: 78900129 heartbeat IPC: 3.551 cumulative IPC: 3.471 (Simulation time: 00 hr 28 min 18 sec)
Heartbeat CPU 0 instructions: 290000002 cycles: 81715621 heartbeat IPC: 3.552 cumulative IPC: 3.474 (Simulation time: 00 hr 29 min 20 sec)
Heartbeat CPU 0 instructions: 300000004 cycles: 84532151 heartbeat IPC: 3.55 cumulative IPC: 3.477 (Simulation time: 00 hr 30 min 20 sec)
Heartbeat CPU 0 instructions: 310000002 cycles: 87348800 heartbeat IPC: 3.55 cumulative IPC: 3.48 (Simulation time: 00 hr 31 min 17 sec)
Heartbeat CPU 0 instructions: 320000000 cycles: 90165264 heartbeat IPC: 3.551 cumulative IPC: 3.482 (Simulation time: 00 hr 32 min 09 sec)
Heartbeat CPU 0 instructions: 330000004 cycles: 92981339 heartbeat IPC: 3.551 cumulative IPC: 3.485 (Simulation time: 00 hr 32 min 51 sec)
Heartbeat CPU 0 instructions: 340000000 cycles: 95798185 heartbeat IPC: 3.55 cumulative IPC: 3.487 (Simulation time: 00 hr 33 min 36 sec)
Heartbeat CPU 0 instructions: 350000003 cycles: 98614226 heartbeat IPC: 3.551 cumulative IPC: 3.489 (Simulation time: 00 hr 35 min 02 sec)
Heartbeat CPU 0 instructions: 360000003 cycles: 101430498 heartbeat IPC: 3.551 cumulative IPC: 3.491 (Simulation time: 00 hr 36 min 32 sec)
Heartbeat CPU 0 instructions: 370000003 cycles: 104247401 heartbeat IPC: 3.55 cumulative IPC: 3.493 (Simulation time: 00 hr 37 min 34 sec)
Heartbeat CPU 0 instructions: 380000003 cycles: 107062388 heartbeat IPC: 3.552 cumulative IPC: 3.495 (Simulation time: 00 hr 38 min 15 sec)
Heartbeat CPU 0 instructions: 390000000 cycles: 109877689 heartbeat IPC: 3.552 cumulative IPC: 3.496 (Simulation time: 00 hr 38 min 57 sec)
Heartbeat CPU 0 instructions: 400000002 cycles: 112694760 heartbeat IPC: 3.55 cumulative IPC: 3.498 (Simulation time: 00 hr 39 min 38 sec)
Heartbeat CPU 0 instructions: 410000004 cycles: 115510344 heartbeat IPC: 3.552 cumulative IPC: 3.499 (Simulation time: 00 hr 40 min 22 sec)
Heartbeat CPU 0 instructions: 420000001 cycles: 118327599 heartbeat IPC: 3.55 cumulative IPC: 3.501 (Simulation time: 00 hr 41 min 05 sec)
Heartbeat CPU 0 instructions: 430000001 cycles: 121142746 heartbeat IPC: 3.552 cumulative IPC: 3.502 (Simulation time: 00 hr 41 min 50 sec)
Heartbeat CPU 0 instructions: 440000002 cycles: 123958640 heartbeat IPC: 3.551 cumulative IPC: 3.503 (Simulation time: 00 hr 42 min 33 sec)
Heartbeat CPU 0 instructions: 450000001 cycles: 127145688 heartbeat IPC: 3.138 cumulative IPC: 3.493 (Simulation time: 00 hr 43 min 23 sec)
Heartbeat CPU 0 instructions: 460000002 cycles: 130920162 heartbeat IPC: 2.649 cumulative IPC: 3.466 (Simulation time: 00 hr 44 min 19 sec)
Heartbeat CPU 0 instructions: 470000004 cycles: 133736890 heartbeat IPC: 3.55 cumulative IPC: 3.468 (Simulation time: 00 hr 45 min 01 sec)
Heartbeat CPU 0 instructions: 480000000 cycles: 136552975 heartbeat IPC: 3.551 cumulative IPC: 3.47 (Simulation time: 00 hr 45 min 42 sec)
Heartbeat CPU 0 instructions: 490000000 cycles: 139369636 heartbeat IPC: 3.55 cumulative IPC: 3.472 (Simulation time: 00 hr 46 min 24 sec)
Heartbeat CPU 0 instructions: 500000002 cycles: 142185145 heartbeat IPC: 3.552 cumulative IPC: 3.473 (Simulation time: 00 hr 47 min 06 sec)
Heartbeat CPU 0 instructions: 510000001 cycles: 145000643 heartbeat IPC: 3.552 cumulative IPC: 3.475 (Simulation time: 00 hr 47 min 48 sec)
Heartbeat CPU 0 instructions: 520000003 cycles: 147816765 heartbeat IPC: 3.551 cumulative IPC: 3.477 (Simulation time: 00 hr 48 min 30 sec)
Heartbeat CPU 0 instructions: 530000002 cycles: 150632791 heartbeat IPC: 3.551 cumulative IPC: 3.478 (Simulation time: 00 hr 49 min 12 sec)
Heartbeat CPU 0 instructions: 540000000 cycles: 153448574 heartbeat IPC: 3.551 cumulative IPC: 3.48 (Simulation time: 00 hr 49 min 54 sec)
Heartbeat CPU 0 instructions: 550000000 cycles: 156263479 heartbeat IPC: 3.553 cumulative IPC: 3.481 (Simulation time: 00 hr 50 min 36 sec)
Heartbeat CPU 0 instructions: 560000001 cycles: 159079386 heartbeat IPC: 3.551 cumulative IPC: 3.482 (Simulation time: 00 hr 51 min 17 sec)
Heartbeat CPU 0 instructions: 570000001 cycles: 161896345 heartbeat IPC: 3.55 cumulative IPC: 3.484 (Simulation time: 00 hr 52 min 00 sec)
Heartbeat CPU 0 instructions: 580000002 cycles: 164713056 heartbeat IPC: 3.55 cumulative IPC: 3.485 (Simulation time: 00 hr 52 min 41 sec)
Heartbeat CPU 0 instructions: 590000003 cycles: 167528195 heartbeat IPC: 3.552 cumulative IPC: 3.486 (Simulation time: 00 hr 53 min 23 sec)
*** Reached end of trace: (0, "traces/l1l2cache.champsimtrace")
Heartbeat CPU 0 instructions: 600000001 cycles: 170345201 heartbeat IPC: 3.55 cumulative IPC: 3.487 (Simulation time: 00 hr 54 min 06 sec)
Heartbeat CPU 0 instructions: 610000001 cycles: 173363673 heartbeat IPC: 3.313 cumulative IPC: 3.484 (Simulation time: 00 hr 54 min 53 sec)
Heartbeat CPU 0 instructions: 620000004 cycles: 175999388 heartbeat IPC: 3.794 cumulative IPC: 3.489 (Simulation time: 00 hr 55 min 40 sec)
Heartbeat CPU 0 instructions: 630000004 cycles: 178814158 heartbeat IPC: 3.553 cumulative IPC: 3.49 (Simulation time: 00 hr 56 min 21 sec)
Heartbeat CPU 0 instructions: 640000000 cycles: 181630175 heartbeat IPC: 3.551 cumulative IPC: 3.491 (Simulation time: 00 hr 57 min 05 sec)
Heartbeat CPU 0 instructions: 650000004 cycles: 184445562 heartbeat IPC: 3.552 cumulative IPC: 3.492 (Simulation time: 00 hr 57 min 49 sec)
Simulation finished CPU 0 instructions: 600000004 cycles: 171814287 cumulative IPC: 3.492 (Simulation time: 00 hr 57 min 49 sec)
Simulation complete CPU 0 instructions: 600000004 cycles: 171814287 cumulative IPC: 3.492 (Simulation time: 00 hr 57 min 49 sec)

ChampSim completed all CPUs

=== Simulation ===
CPU 0 runs traces/l1l2cache.champsimtrace
Region of Interest Statistics

CPU 0 cumulative IPC: 3.492 instructions: 600000004 cycles: 171814287
CPU 0 Branch Prediction Accuracy: 97.76% MPKI: 1.901 Average ROB Occupancy at Mispredict: 151.3
Branch type MPKI
BRANCH_DIRECT_JUMP: 9.5e-05
BRANCH_INDIRECT: 0.000282
BRANCH_CONDITIONAL: 1.9
BRANCH_DIRECT_CALL: 3.33e-06
BRANCH_INDIRECT_CALL: 4.83e-05
BRANCH_RETURN: 3.33e-05

LLC TOTAL        ACCESS:     408903 HIT:     251515 MISS:     157388
LLC LOAD         ACCESS:      59446 HIT:      52030 MISS:       7416
LLC RFO          ACCESS:      99912 HIT:      47949 MISS:      51963
LLC PREFETCH     ACCESS:     149241 HIT:      97986 MISS:      51255
LLC WRITE        ACCESS:     100299 HIT:      53550 MISS:      46749
LLC TRANSLATION  ACCESS:          5 HIT:          0 MISS:          5
LLC PREFETCH REQUESTED:     149241 ISSUED:     149241 USEFUL:      23321 USELESS:         32
LLC AVERAGE MISS LATENCY: 250.8 cycles
cpu0_DTLB TOTAL        ACCESS:   78759891 HIT:   78748931 MISS:      10960
cpu0_DTLB LOAD         ACCESS:   78759891 HIT:   78748931 MISS:      10960
cpu0_DTLB RFO          ACCESS:          0 HIT:          0 MISS:          0
cpu0_DTLB PREFETCH     ACCESS:          0 HIT:          0 MISS:          0
cpu0_DTLB WRITE        ACCESS:          0 HIT:          0 MISS:          0
cpu0_DTLB TRANSLATION  ACCESS:          0 HIT:          0 MISS:          0
cpu0_DTLB PREFETCH REQUESTED:          0 ISSUED:          0 USEFUL:          0 USELESS:          0
cpu0_DTLB AVERAGE MISS LATENCY: 5.792 cycles
cpu0_ITLB TOTAL        ACCESS:       5602 HIT:       5358 MISS:        244
cpu0_ITLB LOAD         ACCESS:       5602 HIT:       5358 MISS:        244
cpu0_ITLB RFO          ACCESS:          0 HIT:          0 MISS:          0
cpu0_ITLB PREFETCH     ACCESS:          0 HIT:          0 MISS:          0
cpu0_ITLB WRITE        ACCESS:          0 HIT:          0 MISS:          0
cpu0_ITLB TRANSLATION  ACCESS:          0 HIT:          0 MISS:          0
cpu0_ITLB PREFETCH REQUESTED:          0 ISSUED:          0 USEFUL:          0 USELESS:          0
cpu0_ITLB AVERAGE MISS LATENCY: 5.635 cycles
cpu0_L1D TOTAL        ACCESS:   97827885 HIT:   96151373 MISS:    1676512
cpu0_L1D LOAD         ACCESS:   38688510 HIT:   38310126 MISS:     378384
cpu0_L1D RFO          ACCESS:          0 HIT:          0 MISS:          0
cpu0_L1D PREFETCH     ACCESS:          0 HIT:          0 MISS:          0
cpu0_L1D WRITE        ACCESS:   59139117 HIT:   57840994 MISS:    1298123
cpu0_L1D TRANSLATION  ACCESS:        258 HIT:        253 MISS:          5
cpu0_L1D PREFETCH REQUESTED:          0 ISSUED:          0 USEFUL:          0 USELESS:          0
cpu0_L1D AVERAGE MISS LATENCY: 18.28 cycles
cpu0_L1I TOTAL        ACCESS:       6391 HIT:       3966 MISS:       2425
cpu0_L1I LOAD         ACCESS:       6391 HIT:       3966 MISS:       2425
cpu0_L1I RFO          ACCESS:          0 HIT:          0 MISS:          0
cpu0_L1I PREFETCH     ACCESS:          0 HIT:          0 MISS:          0
cpu0_L1I WRITE        ACCESS:          0 HIT:          0 MISS:          0
cpu0_L1I TRANSLATION  ACCESS:          0 HIT:          0 MISS:          0
cpu0_L1I PREFETCH REQUESTED:          0 ISSUED:          0 USEFUL:          0 USELESS:          0
cpu0_L1I AVERAGE MISS LATENCY: 106.6 cycles
cpu0_L2C TOTAL        ACCESS:     265755 HIT:     106370 MISS:     159385
cpu0_L2C LOAD         ACCESS:      63737 HIT:       4291 MISS:      59446
cpu0_L2C RFO          ACCESS:     100750 HIT:        838 MISS:      99912
cpu0_L2C PREFETCH     ACCESS:          0 HIT:          0 MISS:          0
cpu0_L2C WRITE        ACCESS:     101263 HIT:     101241 MISS:         22
cpu0_L2C TRANSLATION  ACCESS:          5 HIT:          0 MISS:          5
cpu0_L2C PREFETCH REQUESTED:          0 ISSUED:          0 USEFUL:          0 USELESS:          0
cpu0_L2C AVERAGE MISS LATENCY: 223.1 cycles
cpu0_STLB TOTAL        ACCESS:       3912 HIT:       3655 MISS:        257
cpu0_STLB LOAD         ACCESS:       3912 HIT:       3655 MISS:        257
cpu0_STLB RFO          ACCESS:          0 HIT:          0 MISS:          0
cpu0_STLB PREFETCH     ACCESS:          0 HIT:          0 MISS:          0
cpu0_STLB WRITE        ACCESS:          0 HIT:          0 MISS:          0
cpu0_STLB TRANSLATION  ACCESS:          0 HIT:          0 MISS:          0
cpu0_STLB PREFETCH REQUESTED:          0 ISSUED:          0 USEFUL:          0 USELESS:          0
cpu0_STLB AVERAGE MISS LATENCY: 218.6 cycles

DRAM Statistics

Channel 0 RQ ROW_BUFFER_HIT:      46571
  ROW_BUFFER_MISS:      30267
 AVG DBUS CONGESTED CYCLE: 3.965
WQ ROW_BUFFER_HIT: Channel 0 
  ROW_BUFFER_MISS:      22492
  FULL:      24838
