WARNING: physical memory size is smaller than virtual memory size.

*** ChampSim Multicore Out-of-Order Simulator ***
Warmup Instructions: 50000000
Simulation Instructions: 600000000
Number of CPUs: 1
Page size: 4096

CPU 0 Tage branch predictor
Off-chip DRAM Size: 4 GiB Channels: 1 Width: 64-bit Data Race: 3200 MT/s
Heartbeat CPU 0 instructions: 10000002 cycles: 2565786 heartbeat IPC: 3.897 cumulative IPC: 3.897 (Simulation time: 00 hr 00 min 38 sec)
Heartbeat CPU 0 instructions: 20000000 cycles: 5131275 heartbeat IPC: 3.898 cumulative IPC: 3.898 (Simulation time: 00 hr 01 min 25 sec)
Heartbeat CPU 0 instructions: 30000000 cycles: 7631275 heartbeat IPC: 4 cumulative IPC: 3.931 (Simulation time: 00 hr 02 min 13 sec)
Heartbeat CPU 0 instructions: 40000000 cycles: 10131275 heartbeat IPC: 4 cumulative IPC: 3.948 (Simulation time: 00 hr 03 min 02 sec)
Heartbeat CPU 0 instructions: 50000000 cycles: 12631275 heartbeat IPC: 4 cumulative IPC: 3.958 (Simulation time: 00 hr 03 min 52 sec)
Warmup finished CPU 0 instructions: 50000000 cycles: 12631276 cumulative IPC: 3.958 (Simulation time: 00 hr 03 min 52 sec)
Warmup complete CPU 0 instructions: 50000000 cycles: 12631276 cumulative IPC: 3.958 (Simulation time: 00 hr 03 min 52 sec)
Heartbeat CPU 0 instructions: 60000002 cycles: 15446861 heartbeat IPC: 3.552 cumulative IPC: 3.552 (Simulation time: 00 hr 04 min 50 sec)
Heartbeat CPU 0 instructions: 70000001 cycles: 18261923 heartbeat IPC: 3.552 cumulative IPC: 3.552 (Simulation time: 00 hr 05 min 46 sec)
Heartbeat CPU 0 instructions: 80000004 cycles: 21079022 heartbeat IPC: 3.55 cumulative IPC: 3.551 (Simulation time: 00 hr 06 min 41 sec)
Heartbeat CPU 0 instructions: 90000000 cycles: 23893914 heartbeat IPC: 3.553 cumulative IPC: 3.552 (Simulation time: 00 hr 07 min 39 sec)
Heartbeat CPU 0 instructions: 100000003 cycles: 26710911 heartbeat IPC: 3.55 cumulative IPC: 3.551 (Simulation time: 00 hr 08 min 47 sec)
Heartbeat CPU 0 instructions: 110000000 cycles: 29526057 heartbeat IPC: 3.552 cumulative IPC: 3.551 (Simulation time: 00 hr 09 min 50 sec)
Heartbeat CPU 0 instructions: 120000002 cycles: 32340653 heartbeat IPC: 3.553 cumulative IPC: 3.552 (Simulation time: 00 hr 10 min 52 sec)
Heartbeat CPU 0 instructions: 130000001 cycles: 35155872 heartbeat IPC: 3.552 cumulative IPC: 3.552 (Simulation time: 00 hr 11 min 55 sec)
Heartbeat CPU 0 instructions: 140000002 cycles: 37970733 heartbeat IPC: 3.553 cumulative IPC: 3.552 (Simulation time: 00 hr 12 min 57 sec)
Heartbeat CPU 0 instructions: 150000000 cycles: 40786094 heartbeat IPC: 3.552 cumulative IPC: 3.552 (Simulation time: 00 hr 13 min 59 sec)
Heartbeat CPU 0 instructions: 160000002 cycles: 43603216 heartbeat IPC: 3.55 cumulative IPC: 3.552 (Simulation time: 00 hr 15 min 01 sec)
Heartbeat CPU 0 instructions: 170000000 cycles: 46419905 heartbeat IPC: 3.55 cumulative IPC: 3.551 (Simulation time: 00 hr 16 min 03 sec)
Heartbeat CPU 0 instructions: 180000003 cycles: 49235189 heartbeat IPC: 3.552 cumulative IPC: 3.552 (Simulation time: 00 hr 17 min 06 sec)
Heartbeat CPU 0 instructions: 190000001 cycles: 52051322 heartbeat IPC: 3.551 cumulative IPC: 3.551 (Simulation time: 00 hr 18 min 09 sec)
Heartbeat CPU 0 instructions: 200000001 cycles: 54867267 heartbeat IPC: 3.551 cumulative IPC: 3.551 (Simulation time: 00 hr 19 min 13 sec)
Heartbeat CPU 0 instructions: 210000004 cycles: 57683190 heartbeat IPC: 3.551 cumulative IPC: 3.551 (Simulation time: 00 hr 20 min 18 sec)
Heartbeat CPU 0 instructions: 220000002 cycles: 60498851 heartbeat IPC: 3.552 cumulative IPC: 3.551 (Simulation time: 00 hr 21 min 22 sec)
Heartbeat CPU 0 instructions: 230000001 cycles: 63537045 heartbeat IPC: 3.291 cumulative IPC: 3.536 (Simulation time: 00 hr 22 min 33 sec)
Heartbeat CPU 0 instructions: 240000003 cycles: 66168351 heartbeat IPC: 3.8 cumulative IPC: 3.549 (Simulation time: 00 hr 23 min 41 sec)
Heartbeat CPU 0 instructions: 250000003 cycles: 68983792 heartbeat IPC: 3.552 cumulative IPC: 3.549 (Simulation time: 00 hr 25 min 03 sec)
Heartbeat CPU 0 instructions: 260000002 cycles: 71797961 heartbeat IPC: 3.553 cumulative IPC: 3.549 (Simulation time: 00 hr 25 min 43 sec)
Heartbeat CPU 0 instructions: 270000004 cycles: 74612850 heartbeat IPC: 3.553 cumulative IPC: 3.549 (Simulation time: 00 hr 26 min 20 sec)
Heartbeat CPU 0 instructions: 280000001 cycles: 77429280 heartbeat IPC: 3.551 cumulative IPC: 3.549 (Simulation time: 00 hr 27 min 06 sec)
Heartbeat CPU 0 instructions: 290000002 cycles: 80244772 heartbeat IPC: 3.552 cumulative IPC: 3.55 (Simulation time: 00 hr 28 min 03 sec)
Heartbeat CPU 0 instructions: 300000004 cycles: 83061302 heartbeat IPC: 3.55 cumulative IPC: 3.55 (Simulation time: 00 hr 29 min 37 sec)
Heartbeat CPU 0 instructions: 310000002 cycles: 85877951 heartbeat IPC: 3.55 cumulative IPC: 3.55 (Simulation time: 00 hr 30 min 18 sec)
Heartbeat CPU 0 instructions: 320000000 cycles: 88694415 heartbeat IPC: 3.551 cumulative IPC: 3.55 (Simulation time: 00 hr 31 min 06 sec)
Heartbeat CPU 0 instructions: 330000004 cycles: 91510490 heartbeat IPC: 3.551 cumulative IPC: 3.55 (Simulation time: 00 hr 31 min 57 sec)
Heartbeat CPU 0 instructions: 340000000 cycles: 94327336 heartbeat IPC: 3.55 cumulative IPC: 3.55 (Simulation time: 00 hr 32 min 55 sec)
Heartbeat CPU 0 instructions: 350000003 cycles: 97143377 heartbeat IPC: 3.551 cumulative IPC: 3.55 (Simulation time: 00 hr 34 min 04 sec)
Heartbeat CPU 0 instructions: 360000003 cycles: 99959649 heartbeat IPC: 3.551 cumulative IPC: 3.55 (Simulation time: 00 hr 35 min 14 sec)
Heartbeat CPU 0 instructions: 370000003 cycles: 102776552 heartbeat IPC: 3.55 cumulative IPC: 3.55 (Simulation time: 00 hr 36 min 24 sec)
Heartbeat CPU 0 instructions: 380000003 cycles: 105591539 heartbeat IPC: 3.552 cumulative IPC: 3.55 (Simulation time: 00 hr 37 min 30 sec)
Heartbeat CPU 0 instructions: 390000000 cycles: 108406840 heartbeat IPC: 3.552 cumulative IPC: 3.55 (Simulation time: 00 hr 38 min 40 sec)
Heartbeat CPU 0 instructions: 400000002 cycles: 111223911 heartbeat IPC: 3.55 cumulative IPC: 3.55 (Simulation time: 00 hr 39 min 51 sec)
Heartbeat CPU 0 instructions: 410000004 cycles: 114039495 heartbeat IPC: 3.552 cumulative IPC: 3.55 (Simulation time: 00 hr 41 min 01 sec)
Heartbeat CPU 0 instructions: 420000001 cycles: 116856750 heartbeat IPC: 3.55 cumulative IPC: 3.55 (Simulation time: 00 hr 42 min 12 sec)
Heartbeat CPU 0 instructions: 430000001 cycles: 119671897 heartbeat IPC: 3.552 cumulative IPC: 3.55 (Simulation time: 00 hr 43 min 22 sec)
Heartbeat CPU 0 instructions: 440000002 cycles: 122487791 heartbeat IPC: 3.551 cumulative IPC: 3.55 (Simulation time: 00 hr 44 min 32 sec)
Heartbeat CPU 0 instructions: 450000001 cycles: 125124393 heartbeat IPC: 3.793 cumulative IPC: 3.556 (Simulation time: 00 hr 45 min 45 sec)
Heartbeat CPU 0 instructions: 460000002 cycles: 127747629 heartbeat IPC: 3.812 cumulative IPC: 3.562 (Simulation time: 00 hr 47 min 02 sec)
Heartbeat CPU 0 instructions: 470000004 cycles: 130564357 heartbeat IPC: 3.55 cumulative IPC: 3.561 (Simulation time: 00 hr 48 min 13 sec)
Heartbeat CPU 0 instructions: 480000000 cycles: 133380442 heartbeat IPC: 3.551 cumulative IPC: 3.561 (Simulation time: 00 hr 49 min 24 sec)
Heartbeat CPU 0 instructions: 490000000 cycles: 136197103 heartbeat IPC: 3.55 cumulative IPC: 3.561 (Simulation time: 00 hr 50 min 35 sec)
Heartbeat CPU 0 instructions: 500000002 cycles: 139012612 heartbeat IPC: 3.552 cumulative IPC: 3.561 (Simulation time: 00 hr 51 min 46 sec)
Heartbeat CPU 0 instructions: 510000001 cycles: 141828110 heartbeat IPC: 3.552 cumulative IPC: 3.56 (Simulation time: 00 hr 52 min 56 sec)
Heartbeat CPU 0 instructions: 520000003 cycles: 144644232 heartbeat IPC: 3.551 cumulative IPC: 3.56 (Simulation time: 00 hr 54 min 01 sec)
Heartbeat CPU 0 instructions: 530000002 cycles: 147460258 heartbeat IPC: 3.551 cumulative IPC: 3.56 (Simulation time: 00 hr 55 min 45 sec)
Heartbeat CPU 0 instructions: 540000000 cycles: 150276041 heartbeat IPC: 3.551 cumulative IPC: 3.56 (Simulation time: 00 hr 58 min 10 sec)
Heartbeat CPU 0 instructions: 550000000 cycles: 153090946 heartbeat IPC: 3.553 cumulative IPC: 3.56 (Simulation time: 01 hr 00 min 35 sec)
Heartbeat CPU 0 instructions: 560000001 cycles: 155906853 heartbeat IPC: 3.551 cumulative IPC: 3.56 (Simulation time: 01 hr 02 min 38 sec)
Heartbeat CPU 0 instructions: 570000001 cycles: 158723812 heartbeat IPC: 3.55 cumulative IPC: 3.559 (Simulation time: 01 hr 04 min 40 sec)
Heartbeat CPU 0 instructions: 580000002 cycles: 161540523 heartbeat IPC: 3.55 cumulative IPC: 3.559 (Simulation time: 01 hr 05 min 41 sec)
Heartbeat CPU 0 instructions: 590000003 cycles: 164355662 heartbeat IPC: 3.552 cumulative IPC: 3.559 (Simulation time: 01 hr 06 min 15 sec)
*** Reached end of trace: (0, "traces/l1l2cache.champsimtrace")
Heartbeat CPU 0 instructions: 600000001 cycles: 167172668 heartbeat IPC: 3.55 cumulative IPC: 3.559 (Simulation time: 01 hr 06 min 51 sec)
Heartbeat CPU 0 instructions: 610000001 cycles: 175832309 heartbeat IPC: 1.155 cumulative IPC: 3.431 (Simulation time: 01 hr 08 min 10 sec)
Heartbeat CPU 0 instructions: 620000004 cycles: 178466497 heartbeat IPC: 3.796 cumulative IPC: 3.437 (Simulation time: 01 hr 08 min 55 sec)
Heartbeat CPU 0 instructions: 630000004 cycles: 181281267 heartbeat IPC: 3.553 cumulative IPC: 3.439 (Simulation time: 01 hr 09 min 36 sec)
Heartbeat CPU 0 instructions: 640000000 cycles: 184097284 heartbeat IPC: 3.551 cumulative IPC: 3.441 (Simulation time: 01 hr 10 min 20 sec)
Heartbeat CPU 0 instructions: 650000004 cycles: 186912671 heartbeat IPC: 3.552 cumulative IPC: 3.443 (Simulation time: 01 hr 11 min 00 sec)
Simulation finished CPU 0 instructions: 600000004 cycles: 174281396 cumulative IPC: 3.443 (Simulation time: 01 hr 11 min 00 sec)
Simulation complete CPU 0 instructions: 600000004 cycles: 174281396 cumulative IPC: 3.443 (Simulation time: 01 hr 11 min 00 sec)

ChampSim completed all CPUs

=== Simulation ===
CPU 0 runs traces/l1l2cache.champsimtrace
Region of Interest Statistics

CPU 0 cumulative IPC: 3.443 instructions: 600000004 cycles: 174281396
CPU 0 Branch Prediction Accuracy: 97.76% MPKI: 1.901 Average ROB Occupancy at Mispredict: 151.3
Branch type MPKI
BRANCH_DIRECT_JUMP: 9.5e-05
BRANCH_INDIRECT: 0.000282
BRANCH_CONDITIONAL: 1.9
BRANCH_DIRECT_CALL: 3.33e-06
BRANCH_INDIRECT_CALL: 4.83e-05
BRANCH_RETURN: 3.33e-05

LLC TOTAL        ACCESS:     319110 HIT:     269948 MISS:      49162
LLC LOAD         ACCESS:      59447 HIT:      53143 MISS:       6304
LLC RFO          ACCESS:      99911 HIT:      65493 MISS:      34418
LLC PREFETCH     ACCESS:      59447 HIT:      51029 MISS:       8418
LLC WRITE        ACCESS:     100300 HIT:     100282 MISS:         18
LLC TRANSLATION  ACCESS:          5 HIT:          1 MISS:          4
LLC PREFETCH REQUESTED:      59447 ISSUED:      59447 USEFUL:       5695 USELESS:       1300
LLC AVERAGE MISS LATENCY: 917.1 cycles
cpu0_DTLB TOTAL        ACCESS:   78720345 HIT:   78709587 MISS:      10758
cpu0_DTLB LOAD         ACCESS:   78720345 HIT:   78709587 MISS:      10758
cpu0_DTLB RFO          ACCESS:          0 HIT:          0 MISS:          0
cpu0_DTLB PREFETCH     ACCESS:          0 HIT:          0 MISS:          0
cpu0_DTLB WRITE        ACCESS:          0 HIT:          0 MISS:          0
cpu0_DTLB TRANSLATION  ACCESS:          0 HIT:          0 MISS:          0
cpu0_DTLB PREFETCH REQUESTED:          0 ISSUED:          0 USEFUL:          0 USELESS:          0
cpu0_DTLB AVERAGE MISS LATENCY: 5.896 cycles
cpu0_ITLB TOTAL        ACCESS:       5637 HIT:       5397 MISS:        240
cpu0_ITLB LOAD         ACCESS:       5637 HIT:       5397 MISS:        240
cpu0_ITLB RFO          ACCESS:          0 HIT:          0 MISS:          0
cpu0_ITLB PREFETCH     ACCESS:          0 HIT:          0 MISS:          0
cpu0_ITLB WRITE        ACCESS:          0 HIT:          0 MISS:          0
cpu0_ITLB TRANSLATION  ACCESS:          0 HIT:          0 MISS:          0
cpu0_ITLB PREFETCH REQUESTED:          0 ISSUED:          0 USEFUL:          0 USELESS:          0
cpu0_ITLB AVERAGE MISS LATENCY: 5.771 cycles
cpu0_L1D TOTAL        ACCESS:   97775801 HIT:   96387409 MISS:    1388392
cpu0_L1D LOAD         ACCESS:   38614473 HIT:   38268706 MISS:     345767
cpu0_L1D RFO          ACCESS:          0 HIT:          0 MISS:          0
cpu0_L1D PREFETCH     ACCESS:          0 HIT:          0 MISS:          0
cpu0_L1D WRITE        ACCESS:   59161070 HIT:   58118450 MISS:    1042620
cpu0_L1D TRANSLATION  ACCESS:        258 HIT:        253 MISS:          5
cpu0_L1D PREFETCH REQUESTED:          0 ISSUED:          0 USEFUL:          0 USELESS:          0
cpu0_L1D AVERAGE MISS LATENCY: 27.01 cycles
cpu0_L1I TOTAL        ACCESS:       6432 HIT:       3952 MISS:       2480
cpu0_L1I LOAD         ACCESS:       6432 HIT:       3952 MISS:       2480
cpu0_L1I RFO          ACCESS:          0 HIT:          0 MISS:          0
cpu0_L1I PREFETCH     ACCESS:          0 HIT:          0 MISS:          0
cpu0_L1I WRITE        ACCESS:          0 HIT:          0 MISS:          0
cpu0_L1I TRANSLATION  ACCESS:          0 HIT:          0 MISS:          0
cpu0_L1I PREFETCH REQUESTED:          0 ISSUED:          0 USEFUL:          0 USELESS:          0
cpu0_L1I AVERAGE MISS LATENCY: 551.6 cycles
cpu0_L2C TOTAL        ACCESS:     265738 HIT:     106352 MISS:     159386
cpu0_L2C LOAD         ACCESS:      63738 HIT:       4291 MISS:      59447
cpu0_L2C RFO          ACCESS:     100733 HIT:        822 MISS:      99911
cpu0_L2C PREFETCH     ACCESS:          0 HIT:          0 MISS:          0
cpu0_L2C WRITE        ACCESS:     101262 HIT:     101239 MISS:         23
cpu0_L2C TRANSLATION  ACCESS:          5 HIT:          0 MISS:          5
cpu0_L2C PREFETCH REQUESTED:          0 ISSUED:          0 USEFUL:          0 USELESS:          0
cpu0_L2C AVERAGE MISS LATENCY: 264.8 cycles
cpu0_STLB TOTAL        ACCESS:       3912 HIT:       3655 MISS:        257
cpu0_STLB LOAD         ACCESS:       3912 HIT:       3655 MISS:        257
cpu0_STLB RFO          ACCESS:          0 HIT:          0 MISS:          0
cpu0_STLB PREFETCH     ACCESS:          0 HIT:          0 MISS:          0
cpu0_STLB WRITE        ACCESS:          0 HIT:          0 MISS:          0
cpu0_STLB TRANSLATION  ACCESS:          0 HIT:          0 MISS:          0
cpu0_STLB PREFETCH REQUESTED:          0 ISSUED:          0 USEFUL:          0 USELESS:          0
cpu0_STLB AVERAGE MISS LATENCY: 216.6 cycles

DRAM Statistics

Channel 0 RQ ROW_BUFFER_HIT:      18221
  ROW_BUFFER_MISS:      27406
 AVG DBUS CONGESTED CYCLE: 3.98
WQ ROW_BUFFER_HIT: Channel 0 
  ROW_BUFFER_MISS:       5268
  FULL:      25608
