WARNING: physical memory size is smaller than virtual memory size.

*** ChampSim Multicore Out-of-Order Simulator ***
Warmup Instructions: 50000000
Simulation Instructions: 600000000
Number of CPUs: 1
Page size: 4096

Off-chip DRAM Size: 4 GiB Channels: 1 Width: 64-bit Data Race: 3200 MT/s
Heartbeat CPU 0 instructions: 10000000 cycles: 2565785 heartbeat IPC: 3.897 cumulative IPC: 3.897 (Simulation time: 00 hr 00 min 36 sec)
Heartbeat CPU 0 instructions: 20000000 cycles: 5131274 heartbeat IPC: 3.898 cumulative IPC: 3.898 (Simulation time: 00 hr 01 min 13 sec)
Heartbeat CPU 0 instructions: 30000000 cycles: 7631274 heartbeat IPC: 4 cumulative IPC: 3.931 (Simulation time: 00 hr 01 min 46 sec)
Heartbeat CPU 0 instructions: 40000000 cycles: 10131274 heartbeat IPC: 4 cumulative IPC: 3.948 (Simulation time: 00 hr 02 min 18 sec)
Heartbeat CPU 0 instructions: 50000000 cycles: 12631274 heartbeat IPC: 4 cumulative IPC: 3.958 (Simulation time: 00 hr 02 min 49 sec)
Warmup finished CPU 0 instructions: 50000000 cycles: 12631275 cumulative IPC: 3.958 (Simulation time: 00 hr 02 min 49 sec)
Warmup complete CPU 0 instructions: 50000000 cycles: 12631275 cumulative IPC: 3.958 (Simulation time: 00 hr 02 min 49 sec)
Heartbeat CPU 0 instructions: 60000000 cycles: 16408407 heartbeat IPC: 2.648 cumulative IPC: 2.648 (Simulation time: 00 hr 03 min 32 sec)
Heartbeat CPU 0 instructions: 70000000 cycles: 20186549 heartbeat IPC: 2.647 cumulative IPC: 2.647 (Simulation time: 00 hr 04 min 13 sec)
Heartbeat CPU 0 instructions: 80000004 cycles: 23962683 heartbeat IPC: 2.648 cumulative IPC: 2.648 (Simulation time: 00 hr 04 min 53 sec)
Heartbeat CPU 0 instructions: 90000000 cycles: 27741364 heartbeat IPC: 2.646 cumulative IPC: 2.647 (Simulation time: 00 hr 05 min 36 sec)
Heartbeat CPU 0 instructions: 100000003 cycles: 31520115 heartbeat IPC: 2.646 cumulative IPC: 2.647 (Simulation time: 00 hr 06 min 16 sec)
Heartbeat CPU 0 instructions: 110000001 cycles: 35297461 heartbeat IPC: 2.647 cumulative IPC: 2.647 (Simulation time: 00 hr 06 min 58 sec)
Heartbeat CPU 0 instructions: 120000001 cycles: 39072822 heartbeat IPC: 2.649 cumulative IPC: 2.647 (Simulation time: 00 hr 07 min 38 sec)
Heartbeat CPU 0 instructions: 130000001 cycles: 42846915 heartbeat IPC: 2.65 cumulative IPC: 2.648 (Simulation time: 00 hr 08 min 22 sec)
Heartbeat CPU 0 instructions: 140000001 cycles: 46623966 heartbeat IPC: 2.648 cumulative IPC: 2.648 (Simulation time: 00 hr 09 min 02 sec)
Heartbeat CPU 0 instructions: 150000000 cycles: 50400439 heartbeat IPC: 2.648 cumulative IPC: 2.648 (Simulation time: 00 hr 09 min 45 sec)
Heartbeat CPU 0 instructions: 160000002 cycles: 54178785 heartbeat IPC: 2.647 cumulative IPC: 2.648 (Simulation time: 00 hr 10 min 25 sec)
Heartbeat CPU 0 instructions: 170000000 cycles: 57955645 heartbeat IPC: 2.648 cumulative IPC: 2.648 (Simulation time: 00 hr 11 min 08 sec)
Heartbeat CPU 0 instructions: 180000004 cycles: 61730591 heartbeat IPC: 2.649 cumulative IPC: 2.648 (Simulation time: 00 hr 11 min 50 sec)
Heartbeat CPU 0 instructions: 190000001 cycles: 65506668 heartbeat IPC: 2.648 cumulative IPC: 2.648 (Simulation time: 00 hr 12 min 32 sec)
Heartbeat CPU 0 instructions: 200000001 cycles: 69281672 heartbeat IPC: 2.649 cumulative IPC: 2.648 (Simulation time: 00 hr 13 min 12 sec)
Heartbeat CPU 0 instructions: 210000004 cycles: 73057808 heartbeat IPC: 2.648 cumulative IPC: 2.648 (Simulation time: 00 hr 13 min 54 sec)
Heartbeat CPU 0 instructions: 220000003 cycles: 76833732 heartbeat IPC: 2.648 cumulative IPC: 2.648 (Simulation time: 00 hr 14 min 38 sec)
Heartbeat CPU 0 instructions: 230000001 cycles: 80760562 heartbeat IPC: 2.547 cumulative IPC: 2.642 (Simulation time: 00 hr 15 min 26 sec)
Heartbeat CPU 0 instructions: 240000002 cycles: 84181582 heartbeat IPC: 2.923 cumulative IPC: 2.655 (Simulation time: 00 hr 16 min 13 sec)
Heartbeat CPU 0 instructions: 250000003 cycles: 87962383 heartbeat IPC: 2.645 cumulative IPC: 2.655 (Simulation time: 00 hr 16 min 54 sec)
Heartbeat CPU 0 instructions: 260000002 cycles: 91738582 heartbeat IPC: 2.648 cumulative IPC: 2.655 (Simulation time: 00 hr 17 min 36 sec)
Heartbeat CPU 0 instructions: 270000004 cycles: 95514745 heartbeat IPC: 2.648 cumulative IPC: 2.654 (Simulation time: 00 hr 18 min 17 sec)
Heartbeat CPU 0 instructions: 280000000 cycles: 99291806 heartbeat IPC: 2.648 cumulative IPC: 2.654 (Simulation time: 00 hr 18 min 58 sec)
Heartbeat CPU 0 instructions: 290000002 cycles: 103067839 heartbeat IPC: 2.648 cumulative IPC: 2.654 (Simulation time: 00 hr 19 min 38 sec)
Heartbeat CPU 0 instructions: 300000004 cycles: 106842453 heartbeat IPC: 2.649 cumulative IPC: 2.654 (Simulation time: 00 hr 20 min 18 sec)
Heartbeat CPU 0 instructions: 310000002 cycles: 110618828 heartbeat IPC: 2.648 cumulative IPC: 2.653 (Simulation time: 00 hr 20 min 58 sec)
Heartbeat CPU 0 instructions: 320000004 cycles: 114396054 heartbeat IPC: 2.647 cumulative IPC: 2.653 (Simulation time: 00 hr 21 min 38 sec)
Heartbeat CPU 0 instructions: 330000003 cycles: 118173176 heartbeat IPC: 2.648 cumulative IPC: 2.653 (Simulation time: 00 hr 22 min 18 sec)
Heartbeat CPU 0 instructions: 340000000 cycles: 121949885 heartbeat IPC: 2.648 cumulative IPC: 2.653 (Simulation time: 00 hr 22 min 57 sec)
Heartbeat CPU 0 instructions: 350000002 cycles: 125726975 heartbeat IPC: 2.648 cumulative IPC: 2.653 (Simulation time: 00 hr 23 min 36 sec)
Heartbeat CPU 0 instructions: 360000003 cycles: 129503588 heartbeat IPC: 2.648 cumulative IPC: 2.652 (Simulation time: 00 hr 24 min 15 sec)
Heartbeat CPU 0 instructions: 370000004 cycles: 133278867 heartbeat IPC: 2.649 cumulative IPC: 2.652 (Simulation time: 00 hr 24 min 54 sec)
Heartbeat CPU 0 instructions: 380000002 cycles: 137053907 heartbeat IPC: 2.649 cumulative IPC: 2.652 (Simulation time: 00 hr 25 min 33 sec)
Heartbeat CPU 0 instructions: 390000000 cycles: 140827054 heartbeat IPC: 2.65 cumulative IPC: 2.652 (Simulation time: 00 hr 26 min 13 sec)
Heartbeat CPU 0 instructions: 400000001 cycles: 144603153 heartbeat IPC: 2.648 cumulative IPC: 2.652 (Simulation time: 00 hr 26 min 52 sec)
Heartbeat CPU 0 instructions: 410000003 cycles: 148379426 heartbeat IPC: 2.648 cumulative IPC: 2.652 (Simulation time: 00 hr 27 min 31 sec)
Heartbeat CPU 0 instructions: 420000000 cycles: 152157314 heartbeat IPC: 2.647 cumulative IPC: 2.652 (Simulation time: 00 hr 28 min 09 sec)
Heartbeat CPU 0 instructions: 430000001 cycles: 155935057 heartbeat IPC: 2.647 cumulative IPC: 2.652 (Simulation time: 00 hr 28 min 48 sec)
Heartbeat CPU 0 instructions: 440000002 cycles: 159710208 heartbeat IPC: 2.649 cumulative IPC: 2.652 (Simulation time: 00 hr 29 min 26 sec)
Heartbeat CPU 0 instructions: 450000001 cycles: 162559022 heartbeat IPC: 3.51 cumulative IPC: 2.668 (Simulation time: 00 hr 30 min 02 sec)
Heartbeat CPU 0 instructions: 460000002 cycles: 165354653 heartbeat IPC: 3.577 cumulative IPC: 2.685 (Simulation time: 00 hr 30 min 40 sec)
Heartbeat CPU 0 instructions: 470000004 cycles: 169129145 heartbeat IPC: 2.649 cumulative IPC: 2.684 (Simulation time: 00 hr 31 min 18 sec)
Heartbeat CPU 0 instructions: 480000000 cycles: 172906293 heartbeat IPC: 2.647 cumulative IPC: 2.683 (Simulation time: 00 hr 31 min 56 sec)
Heartbeat CPU 0 instructions: 490000000 cycles: 176682499 heartbeat IPC: 2.648 cumulative IPC: 2.682 (Simulation time: 00 hr 32 min 35 sec)
Heartbeat CPU 0 instructions: 500000002 cycles: 180458083 heartbeat IPC: 2.649 cumulative IPC: 2.681 (Simulation time: 00 hr 33 min 14 sec)
Heartbeat CPU 0 instructions: 510000001 cycles: 184234545 heartbeat IPC: 2.648 cumulative IPC: 2.681 (Simulation time: 00 hr 33 min 54 sec)
Heartbeat CPU 0 instructions: 520000002 cycles: 188011060 heartbeat IPC: 2.648 cumulative IPC: 2.68 (Simulation time: 00 hr 34 min 33 sec)
Heartbeat CPU 0 instructions: 530000002 cycles: 191786446 heartbeat IPC: 2.649 cumulative IPC: 2.679 (Simulation time: 00 hr 35 min 11 sec)
Heartbeat CPU 0 instructions: 540000000 cycles: 195565101 heartbeat IPC: 2.646 cumulative IPC: 2.679 (Simulation time: 00 hr 35 min 49 sec)
Heartbeat CPU 0 instructions: 550000000 cycles: 199340480 heartbeat IPC: 2.649 cumulative IPC: 2.678 (Simulation time: 00 hr 36 min 27 sec)
Heartbeat CPU 0 instructions: 560000001 cycles: 203116591 heartbeat IPC: 2.648 cumulative IPC: 2.677 (Simulation time: 00 hr 37 min 06 sec)
Heartbeat CPU 0 instructions: 570000001 cycles: 206892446 heartbeat IPC: 2.648 cumulative IPC: 2.677 (Simulation time: 00 hr 37 min 44 sec)
Heartbeat CPU 0 instructions: 580000002 cycles: 210672680 heartbeat IPC: 2.645 cumulative IPC: 2.676 (Simulation time: 00 hr 38 min 22 sec)
Heartbeat CPU 0 instructions: 590000003 cycles: 214448695 heartbeat IPC: 2.648 cumulative IPC: 2.676 (Simulation time: 00 hr 39 min 00 sec)
*** Reached end of trace: (0, "traces/l1l2cache.champsimtrace")
Heartbeat CPU 0 instructions: 600000001 cycles: 218225001 heartbeat IPC: 2.648 cumulative IPC: 2.675 (Simulation time: 00 hr 39 min 38 sec)
Heartbeat CPU 0 instructions: 610000001 cycles: 227112543 heartbeat IPC: 1.125 cumulative IPC: 2.611 (Simulation time: 00 hr 40 min 53 sec)
Heartbeat CPU 0 instructions: 620000004 cycles: 230163971 heartbeat IPC: 3.277 cumulative IPC: 2.62 (Simulation time: 00 hr 41 min 34 sec)
Heartbeat CPU 0 instructions: 630000004 cycles: 233937605 heartbeat IPC: 2.65 cumulative IPC: 2.621 (Simulation time: 00 hr 42 min 12 sec)
Heartbeat CPU 0 instructions: 640000004 cycles: 237713069 heartbeat IPC: 2.649 cumulative IPC: 2.621 (Simulation time: 00 hr 42 min 50 sec)
Heartbeat CPU 0 instructions: 650000004 cycles: 241491504 heartbeat IPC: 2.647 cumulative IPC: 2.622 (Simulation time: 00 hr 43 min 28 sec)
Simulation finished CPU 0 instructions: 600000004 cycles: 228860230 cumulative IPC: 2.622 (Simulation time: 00 hr 43 min 28 sec)
Simulation complete CPU 0 instructions: 600000004 cycles: 228860230 cumulative IPC: 2.622 (Simulation time: 00 hr 43 min 28 sec)

ChampSim completed all CPUs

=== Simulation ===
CPU 0 runs traces/l1l2cache.champsimtrace
Region of Interest Statistics

CPU 0 cumulative IPC: 2.622 instructions: 600000004 cycles: 228860230
CPU 0 Branch Prediction Accuracy: 89.66% MPKI: 8.781 Average ROB Occupancy at Mispredict: 55.05
Branch type MPKI
BRANCH_DIRECT_JUMP: 9.5e-05
BRANCH_INDIRECT: 0.000282
BRANCH_CONDITIONAL: 8.78
BRANCH_DIRECT_CALL: 3.33e-06
BRANCH_INDIRECT_CALL: 4.83e-05
BRANCH_RETURN: 3.33e-05

LLC TOTAL        ACCESS:     408862 HIT:     320608 MISS:      88254
LLC LOAD         ACCESS:      59445 HIT:      47742 MISS:      11703
LLC RFO          ACCESS:      99913 HIT:      43698 MISS:      56215
LLC PREFETCH     ACCESS:     149201 HIT:     129662 MISS:      19539
LLC WRITE        ACCESS:     100298 HIT:      99506 MISS:        792
LLC TRANSLATION  ACCESS:          5 HIT:          0 MISS:          5
LLC PREFETCH REQUESTED:     149201 ISSUED:     149201 USEFUL:       8319 USELESS:        215
LLC AVERAGE MISS LATENCY: 695.5 cycles
cpu0_DTLB TOTAL        ACCESS:   82996434 HIT:   82985704 MISS:      10730
cpu0_DTLB LOAD         ACCESS:   82996434 HIT:   82985704 MISS:      10730
cpu0_DTLB RFO          ACCESS:          0 HIT:          0 MISS:          0
cpu0_DTLB PREFETCH     ACCESS:          0 HIT:          0 MISS:          0
cpu0_DTLB WRITE        ACCESS:          0 HIT:          0 MISS:          0
cpu0_DTLB TRANSLATION  ACCESS:          0 HIT:          0 MISS:          0
cpu0_DTLB PREFETCH REQUESTED:          0 ISSUED:          0 USEFUL:          0 USELESS:          0
cpu0_DTLB AVERAGE MISS LATENCY: 5.984 cycles
cpu0_ITLB TOTAL        ACCESS:       5580 HIT:       5350 MISS:        230
cpu0_ITLB LOAD         ACCESS:       5580 HIT:       5350 MISS:        230
cpu0_ITLB RFO          ACCESS:          0 HIT:          0 MISS:          0
cpu0_ITLB PREFETCH     ACCESS:          0 HIT:          0 MISS:          0
cpu0_ITLB WRITE        ACCESS:          0 HIT:          0 MISS:          0
cpu0_ITLB TRANSLATION  ACCESS:          0 HIT:          0 MISS:          0
cpu0_ITLB PREFETCH REQUESTED:          0 ISSUED:          0 USEFUL:          0 USELESS:          0
cpu0_ITLB AVERAGE MISS LATENCY: 6.074 cycles
cpu0_L1D TOTAL        ACCESS:  105786527 HIT:  104131283 MISS:    1655244
cpu0_L1D LOAD         ACCESS:   46579392 HIT:   46209351 MISS:     370041
cpu0_L1D RFO          ACCESS:          0 HIT:          0 MISS:          0
cpu0_L1D PREFETCH     ACCESS:          0 HIT:          0 MISS:          0
cpu0_L1D WRITE        ACCESS:   59206877 HIT:   57921679 MISS:    1285198
cpu0_L1D TRANSLATION  ACCESS:        258 HIT:        253 MISS:          5
cpu0_L1D PREFETCH REQUESTED:          0 ISSUED:          0 USEFUL:          0 USELESS:          0
cpu0_L1D AVERAGE MISS LATENCY: 32.8 cycles
cpu0_L1I TOTAL        ACCESS:       6327 HIT:       3873 MISS:       2454
cpu0_L1I LOAD         ACCESS:       6327 HIT:       3873 MISS:       2454
cpu0_L1I RFO          ACCESS:          0 HIT:          0 MISS:          0
cpu0_L1I PREFETCH     ACCESS:          0 HIT:          0 MISS:          0
cpu0_L1I WRITE        ACCESS:          0 HIT:          0 MISS:          0
cpu0_L1I TRANSLATION  ACCESS:          0 HIT:          0 MISS:          0
cpu0_L1I PREFETCH REQUESTED:          0 ISSUED:          0 USEFUL:          0 USELESS:          0
cpu0_L1I AVERAGE MISS LATENCY: 605.8 cycles
cpu0_L2C TOTAL        ACCESS:     265740 HIT:     106357 MISS:     159383
cpu0_L2C LOAD         ACCESS:      63734 HIT:       4289 MISS:      59445
cpu0_L2C RFO          ACCESS:     100741 HIT:        828 MISS:      99913
cpu0_L2C PREFETCH     ACCESS:          0 HIT:          0 MISS:          0
cpu0_L2C WRITE        ACCESS:     101260 HIT:     101240 MISS:         20
cpu0_L2C TRANSLATION  ACCESS:          5 HIT:          0 MISS:          5
cpu0_L2C PREFETCH REQUESTED:          0 ISSUED:          0 USEFUL:          0 USELESS:          0
cpu0_L2C AVERAGE MISS LATENCY: 381.9 cycles
cpu0_STLB TOTAL        ACCESS:       3912 HIT:       3655 MISS:        257
cpu0_STLB LOAD         ACCESS:       3912 HIT:       3655 MISS:        257
cpu0_STLB RFO          ACCESS:          0 HIT:          0 MISS:          0
cpu0_STLB PREFETCH     ACCESS:          0 HIT:          0 MISS:          0
cpu0_STLB WRITE        ACCESS:          0 HIT:          0 MISS:          0
cpu0_STLB TRANSLATION  ACCESS:          0 HIT:          0 MISS:          0
cpu0_STLB PREFETCH REQUESTED:          0 ISSUED:          0 USEFUL:          0 USELESS:          0
cpu0_STLB AVERAGE MISS LATENCY: 218.4 cycles

DRAM Statistics

Channel 0 RQ ROW_BUFFER_HIT:      29826
  ROW_BUFFER_MISS:      42590
 AVG DBUS CONGESTED CYCLE: 3.978
WQ ROW_BUFFER_HIT: Channel 0 
  ROW_BUFFER_MISS:       9365
  FULL:      42088
