WARNING: physical memory size is smaller than virtual memory size.

*** ChampSim Multicore Out-of-Order Simulator ***
Warmup Instructions: 50000000
Simulation Instructions: 600000000
Number of CPUs: 1
Page size: 4096

CPU 0 Tage branch predictor
Off-chip DRAM Size: 4 GiB Channels: 1 Width: 64-bit Data Race: 3200 MT/s
Heartbeat CPU 0 instructions: 10000004 cycles: 2777663 heartbeat IPC: 3.6 cumulative IPC: 3.6 (Simulation time: 00 hr 01 min 08 sec)
Heartbeat CPU 0 instructions: 20000001 cycles: 5634805 heartbeat IPC: 3.5 cumulative IPC: 3.549 (Simulation time: 00 hr 02 min 20 sec)
Heartbeat CPU 0 instructions: 30000000 cycles: 8491948 heartbeat IPC: 3.5 cumulative IPC: 3.533 (Simulation time: 00 hr 03 min 30 sec)
Heartbeat CPU 0 instructions: 40000002 cycles: 11120600 heartbeat IPC: 3.804 cumulative IPC: 3.597 (Simulation time: 00 hr 04 min 41 sec)
Heartbeat CPU 0 instructions: 50000002 cycles: 13620600 heartbeat IPC: 4 cumulative IPC: 3.671 (Simulation time: 00 hr 05 min 44 sec)
Warmup finished CPU 0 instructions: 50000002 cycles: 13620601 cumulative IPC: 3.671 (Simulation time: 00 hr 05 min 44 sec)
Warmup complete CPU 0 instructions: 50000002 cycles: 13620601 cumulative IPC: 3.671 (Simulation time: 00 hr 05 min 44 sec)
Heartbeat CPU 0 instructions: 60000002 cycles: 16120602 heartbeat IPC: 4 cumulative IPC: 4 (Simulation time: 00 hr 06 min 53 sec)
Heartbeat CPU 0 instructions: 70000001 cycles: 18620601 heartbeat IPC: 4 cumulative IPC: 4 (Simulation time: 00 hr 08 min 06 sec)
Heartbeat CPU 0 instructions: 80000001 cycles: 21120601 heartbeat IPC: 4 cumulative IPC: 4 (Simulation time: 00 hr 09 min 17 sec)
Heartbeat CPU 0 instructions: 90000003 cycles: 23620909 heartbeat IPC: 4 cumulative IPC: 4 (Simulation time: 00 hr 10 min 31 sec)
Heartbeat CPU 0 instructions: 100000003 cycles: 26121987 heartbeat IPC: 3.998 cumulative IPC: 4 (Simulation time: 00 hr 11 min 49 sec)
Heartbeat CPU 0 instructions: 110000004 cycles: 28621988 heartbeat IPC: 4 cumulative IPC: 4 (Simulation time: 00 hr 13 min 35 sec)
Heartbeat CPU 0 instructions: 120000003 cycles: 31121987 heartbeat IPC: 4 cumulative IPC: 4 (Simulation time: 00 hr 15 min 05 sec)
Heartbeat CPU 0 instructions: 130000002 cycles: 33621986 heartbeat IPC: 4 cumulative IPC: 4 (Simulation time: 00 hr 16 min 24 sec)
Heartbeat CPU 0 instructions: 140000000 cycles: 36124200 heartbeat IPC: 3.996 cumulative IPC: 3.999 (Simulation time: 00 hr 17 min 38 sec)
Heartbeat CPU 0 instructions: 150000000 cycles: 38624201 heartbeat IPC: 4 cumulative IPC: 3.999 (Simulation time: 00 hr 18 min 58 sec)
Heartbeat CPU 0 instructions: 160000001 cycles: 41124202 heartbeat IPC: 4 cumulative IPC: 3.999 (Simulation time: 00 hr 20 min 11 sec)
Heartbeat CPU 0 instructions: 170000004 cycles: 43624202 heartbeat IPC: 4 cumulative IPC: 4 (Simulation time: 00 hr 21 min 26 sec)
Heartbeat CPU 0 instructions: 180000000 cycles: 46124510 heartbeat IPC: 4 cumulative IPC: 4 (Simulation time: 00 hr 22 min 39 sec)
Heartbeat CPU 0 instructions: 190000004 cycles: 48626837 heartbeat IPC: 3.996 cumulative IPC: 3.999 (Simulation time: 00 hr 23 min 56 sec)
Heartbeat CPU 0 instructions: 200000002 cycles: 51126837 heartbeat IPC: 4 cumulative IPC: 3.999 (Simulation time: 00 hr 25 min 13 sec)
Heartbeat CPU 0 instructions: 210000003 cycles: 53626838 heartbeat IPC: 4 cumulative IPC: 3.999 (Simulation time: 00 hr 26 min 26 sec)
Heartbeat CPU 0 instructions: 220000001 cycles: 56126837 heartbeat IPC: 4 cumulative IPC: 3.999 (Simulation time: 00 hr 27 min 41 sec)
Heartbeat CPU 0 instructions: 230000002 cycles: 58628142 heartbeat IPC: 3.998 cumulative IPC: 3.999 (Simulation time: 00 hr 28 min 56 sec)
Heartbeat CPU 0 instructions: 240000003 cycles: 61128142 heartbeat IPC: 4 cumulative IPC: 3.999 (Simulation time: 00 hr 30 min 11 sec)
Heartbeat CPU 0 instructions: 250000004 cycles: 63628143 heartbeat IPC: 4 cumulative IPC: 3.999 (Simulation time: 00 hr 31 min 23 sec)
Heartbeat CPU 0 instructions: 260000000 cycles: 66128143 heartbeat IPC: 4 cumulative IPC: 3.999 (Simulation time: 00 hr 32 min 38 sec)
Heartbeat CPU 0 instructions: 270000003 cycles: 68628453 heartbeat IPC: 4 cumulative IPC: 3.999 (Simulation time: 00 hr 34 min 03 sec)
Heartbeat CPU 0 instructions: 280000001 cycles: 71129501 heartbeat IPC: 3.998 cumulative IPC: 3.999 (Simulation time: 00 hr 36 min 10 sec)
Heartbeat CPU 0 instructions: 290000000 cycles: 73629501 heartbeat IPC: 4 cumulative IPC: 3.999 (Simulation time: 00 hr 38 min 45 sec)
Heartbeat CPU 0 instructions: 300000001 cycles: 76129502 heartbeat IPC: 4 cumulative IPC: 3.999 (Simulation time: 00 hr 41 min 25 sec)
Heartbeat CPU 0 instructions: 310000000 cycles: 78629502 heartbeat IPC: 4 cumulative IPC: 3.999 (Simulation time: 00 hr 44 min 15 sec)
Heartbeat CPU 0 instructions: 320000000 cycles: 81132790 heartbeat IPC: 3.995 cumulative IPC: 3.999 (Simulation time: 00 hr 46 min 44 sec)
Heartbeat CPU 0 instructions: 330000000 cycles: 83632788 heartbeat IPC: 4 cumulative IPC: 3.999 (Simulation time: 00 hr 49 min 35 sec)
Heartbeat CPU 0 instructions: 340000002 cycles: 86132789 heartbeat IPC: 4 cumulative IPC: 3.999 (Simulation time: 00 hr 52 min 58 sec)
Heartbeat CPU 0 instructions: 350000003 cycles: 88632790 heartbeat IPC: 4 cumulative IPC: 3.999 (Simulation time: 00 hr 56 min 06 sec)
Heartbeat CPU 0 instructions: 360000001 cycles: 91133099 heartbeat IPC: 4 cumulative IPC: 3.999 (Simulation time: 00 hr 58 min 47 sec)
Heartbeat CPU 0 instructions: 370000002 cycles: 93633268 heartbeat IPC: 4 cumulative IPC: 3.999 (Simulation time: 01 hr 02 min 00 sec)
Heartbeat CPU 0 instructions: 380000002 cycles: 96133267 heartbeat IPC: 4 cumulative IPC: 3.999 (Simulation time: 01 hr 05 min 20 sec)
Heartbeat CPU 0 instructions: 390000004 cycles: 98633268 heartbeat IPC: 4 cumulative IPC: 3.999 (Simulation time: 01 hr 07 min 54 sec)
Heartbeat CPU 0 instructions: 400000000 cycles: 101133268 heartbeat IPC: 4 cumulative IPC: 3.999 (Simulation time: 01 hr 10 min 42 sec)
Heartbeat CPU 0 instructions: 410000003 cycles: 103636855 heartbeat IPC: 3.994 cumulative IPC: 3.999 (Simulation time: 01 hr 13 min 56 sec)
Heartbeat CPU 0 instructions: 420000003 cycles: 111118034 heartbeat IPC: 1.337 cumulative IPC: 3.795 (Simulation time: 01 hr 19 min 33 sec)
Heartbeat CPU 0 instructions: 430000002 cycles: 130224169 heartbeat IPC: 0.5234 cumulative IPC: 3.259 (Simulation time: 01 hr 30 min 29 sec)
Heartbeat CPU 0 instructions: 440000004 cycles: 149101869 heartbeat IPC: 0.5297 cumulative IPC: 2.879 (Simulation time: 01 hr 40 min 22 sec)
Heartbeat CPU 0 instructions: 450000000 cycles: 167960022 heartbeat IPC: 0.5303 cumulative IPC: 2.592 (Simulation time: 01 hr 50 min 47 sec)
Heartbeat CPU 0 instructions: 460000002 cycles: 186731407 heartbeat IPC: 0.5327 cumulative IPC: 2.368 (Simulation time: 02 hr 01 min 34 sec)
Heartbeat CPU 0 instructions: 470000003 cycles: 205551885 heartbeat IPC: 0.5313 cumulative IPC: 2.188 (Simulation time: 02 hr 12 min 39 sec)
Heartbeat CPU 0 instructions: 480000003 cycles: 224703335 heartbeat IPC: 0.5222 cumulative IPC: 2.037 (Simulation time: 02 hr 23 min 12 sec)
Heartbeat CPU 0 instructions: 490000004 cycles: 243975765 heartbeat IPC: 0.5189 cumulative IPC: 1.91 (Simulation time: 02 hr 34 min 01 sec)
Heartbeat CPU 0 instructions: 500000003 cycles: 262744924 heartbeat IPC: 0.5328 cumulative IPC: 1.806 (Simulation time: 02 hr 45 min 11 sec)
Heartbeat CPU 0 instructions: 510000002 cycles: 281478191 heartbeat IPC: 0.5338 cumulative IPC: 1.717 (Simulation time: 02 hr 56 min 03 sec)
Heartbeat CPU 0 instructions: 520000003 cycles: 300225508 heartbeat IPC: 0.5334 cumulative IPC: 1.64 (Simulation time: 03 hr 07 min 44 sec)
Heartbeat CPU 0 instructions: 530000004 cycles: 318901932 heartbeat IPC: 0.5354 cumulative IPC: 1.572 (Simulation time: 03 hr 19 min 20 sec)
Heartbeat CPU 0 instructions: 540000003 cycles: 337624001 heartbeat IPC: 0.5341 cumulative IPC: 1.512 (Simulation time: 03 hr 30 min 41 sec)
Heartbeat CPU 0 instructions: 550000000 cycles: 356398876 heartbeat IPC: 0.5326 cumulative IPC: 1.459 (Simulation time: 03 hr 42 min 08 sec)
Heartbeat CPU 0 instructions: 560000002 cycles: 375162900 heartbeat IPC: 0.5329 cumulative IPC: 1.411 (Simulation time: 03 hr 53 min 59 sec)
Heartbeat CPU 0 instructions: 570000002 cycles: 393923857 heartbeat IPC: 0.533 cumulative IPC: 1.367 (Simulation time: 04 hr 02 min 21 sec)
Heartbeat CPU 0 instructions: 580000000 cycles: 412708514 heartbeat IPC: 0.5323 cumulative IPC: 1.328 (Simulation time: 04 hr 05 min 57 sec)
Heartbeat CPU 0 instructions: 590000000 cycles: 431458176 heartbeat IPC: 0.5333 cumulative IPC: 1.292 (Simulation time: 04 hr 09 min 00 sec)
*** Reached end of trace: (0, "traces/l1l2l3cache.champsimtrace")
Heartbeat CPU 0 instructions: 600000000 cycles: 450197342 heartbeat IPC: 0.5336 cumulative IPC: 1.26 (Simulation time: 04 hr 12 min 14 sec)
Heartbeat CPU 0 instructions: 610000004 cycles: 460725638 heartbeat IPC: 0.9498 cumulative IPC: 1.253 (Simulation time: 04 hr 14 min 16 sec)
Heartbeat CPU 0 instructions: 620000001 cycles: 475751784 heartbeat IPC: 0.6655 cumulative IPC: 1.233 (Simulation time: 04 hr 17 min 06 sec)
Heartbeat CPU 0 instructions: 630000000 cycles: 490768890 heartbeat IPC: 0.6659 cumulative IPC: 1.216 (Simulation time: 04 hr 19 min 50 sec)
Heartbeat CPU 0 instructions: 640000000 cycles: 497826404 heartbeat IPC: 1.417 cumulative IPC: 1.218 (Simulation time: 04 hr 21 min 18 sec)
Heartbeat CPU 0 instructions: 650000001 cycles: 500326714 heartbeat IPC: 4 cumulative IPC: 1.233 (Simulation time: 04 hr 22 min 06 sec)
Simulation finished CPU 0 instructions: 600000004 cycles: 486706115 cumulative IPC: 1.233 (Simulation time: 04 hr 22 min 06 sec)
Simulation complete CPU 0 instructions: 600000004 cycles: 486706115 cumulative IPC: 1.233 (Simulation time: 04 hr 22 min 06 sec)

ChampSim completed all CPUs

=== Simulation ===
CPU 0 runs traces/l1l2l3cache.champsimtrace
Region of Interest Statistics

CPU 0 cumulative IPC: 1.233 instructions: 600000004 cycles: 486706115
CPU 0 Branch Prediction Accuracy: 99.99% MPKI: 0.01094 Average ROB Occupancy at Mispredict: 171.4
Branch type MPKI
BRANCH_DIRECT_JUMP: 8.5e-05
BRANCH_INDIRECT: 0.000237
BRANCH_CONDITIONAL: 0.0105
BRANCH_DIRECT_CALL: 5e-06
BRANCH_INDIRECT_CALL: 4.67e-05
BRANCH_RETURN: 3.67e-05

LLC TOTAL        ACCESS:    3089467 HIT:     294020 MISS:    2795447
LLC LOAD         ACCESS:    1954449 HIT:     186935 MISS:    1767514
LLC RFO          ACCESS:     561709 HIT:      50061 MISS:     511648
LLC PREFETCH     ACCESS:          0 HIT:          0 MISS:          0
LLC WRITE        ACCESS:     562066 HIT:      52090 MISS:     509976
LLC TRANSLATION  ACCESS:      11243 HIT:       4934 MISS:       6309
LLC PREFETCH REQUESTED:          0 ISSUED:          0 USEFUL:          0 USELESS:          0
LLC AVERAGE MISS LATENCY: 573.3 cycles
cpu0_DTLB TOTAL        ACCESS:  124231836 HIT:  122216998 MISS:    2014838
cpu0_DTLB LOAD         ACCESS:  124231836 HIT:  122216998 MISS:    2014838
cpu0_DTLB RFO          ACCESS:          0 HIT:          0 MISS:          0
cpu0_DTLB PREFETCH     ACCESS:          0 HIT:          0 MISS:          0
cpu0_DTLB WRITE        ACCESS:          0 HIT:          0 MISS:          0
cpu0_DTLB TRANSLATION  ACCESS:          0 HIT:          0 MISS:          0
cpu0_DTLB PREFETCH REQUESTED:          0 ISSUED:          0 USEFUL:          0 USELESS:          0
cpu0_DTLB AVERAGE MISS LATENCY: 18.73 cycles
cpu0_ITLB TOTAL        ACCESS:       5109 HIT:       4868 MISS:        241
cpu0_ITLB LOAD         ACCESS:       5109 HIT:       4868 MISS:        241
cpu0_ITLB RFO          ACCESS:          0 HIT:          0 MISS:          0
cpu0_ITLB PREFETCH     ACCESS:          0 HIT:          0 MISS:          0
cpu0_ITLB WRITE        ACCESS:          0 HIT:          0 MISS:          0
cpu0_ITLB TRANSLATION  ACCESS:          0 HIT:          0 MISS:          0
cpu0_ITLB PREFETCH REQUESTED:          0 ISSUED:          0 USEFUL:          0 USELESS:          0
cpu0_ITLB AVERAGE MISS LATENCY: 249.7 cycles
cpu0_L1D TOTAL        ACCESS:  171968611 HIT:  160660631 MISS:   11307980
cpu0_L1D LOAD         ACCESS:   63711554 HIT:   61661694 MISS:    2049860
cpu0_L1D RFO          ACCESS:          0 HIT:          0 MISS:          0
cpu0_L1D PREFETCH     ACCESS:          0 HIT:          0 MISS:          0
cpu0_L1D WRITE        ACCESS:  106951562 HIT:   98439669 MISS:    8511893
cpu0_L1D TRANSLATION  ACCESS:    1305495 HIT:     559268 MISS:     746227
cpu0_L1D PREFETCH REQUESTED:          0 ISSUED:          0 USEFUL:          0 USELESS:          0
cpu0_L1D AVERAGE MISS LATENCY: 141.8 cycles
cpu0_L1I TOTAL        ACCESS:       5893 HIT:       3313 MISS:       2580
cpu0_L1I LOAD         ACCESS:       5893 HIT:       3313 MISS:       2580
cpu0_L1I RFO          ACCESS:          0 HIT:          0 MISS:          0
cpu0_L1I PREFETCH     ACCESS:          0 HIT:          0 MISS:          0
cpu0_L1I WRITE        ACCESS:          0 HIT:          0 MISS:          0
cpu0_L1I TRANSLATION  ACCESS:          0 HIT:          0 MISS:          0
cpu0_L1I PREFETCH REQUESTED:          0 ISSUED:          0 USEFUL:          0 USELESS:          0
cpu0_L1I AVERAGE MISS LATENCY: 315.4 cycles
cpu0_L2C TOTAL        ACCESS:    3905777 HIT:    1378359 MISS:    2527418
cpu0_L2C LOAD         ACCESS:    2009351 HIT:      54902 MISS:    1954449
cpu0_L2C RFO          ACCESS:     574443 HIT:      12734 MISS:     561709
cpu0_L2C PREFETCH     ACCESS:          0 HIT:          0 MISS:          0
cpu0_L2C WRITE        ACCESS:     575774 HIT:     575757 MISS:         17
cpu0_L2C TRANSLATION  ACCESS:     746209 HIT:     734966 MISS:      11243
cpu0_L2C PREFETCH REQUESTED:          0 ISSUED:          0 USEFUL:          0 USELESS:          0
cpu0_L2C AVERAGE MISS LATENCY: 655 cycles
cpu0_STLB TOTAL        ACCESS:    1982592 HIT:     677105 MISS:    1305487
cpu0_STLB LOAD         ACCESS:    1982592 HIT:     677105 MISS:    1305487
cpu0_STLB RFO          ACCESS:          0 HIT:          0 MISS:          0
cpu0_STLB PREFETCH     ACCESS:          0 HIT:          0 MISS:          0
cpu0_STLB WRITE        ACCESS:          0 HIT:          0 MISS:          0
cpu0_STLB TRANSLATION  ACCESS:          0 HIT:          0 MISS:          0
cpu0_STLB PREFETCH REQUESTED:          0 ISSUED:          0 USEFUL:          0 USELESS:          0
cpu0_STLB AVERAGE MISS LATENCY: 15.87 cycles

DRAM Statistics

Channel 0 RQ ROW_BUFFER_HIT:     109165
  ROW_BUFFER_MISS:    2175974
 AVG DBUS CONGESTED CYCLE: 3.936
WQ ROW_BUFFER_HIT: Channel 0 
  ROW_BUFFER_MISS:     149537
  FULL:     369600
