WARNING: physical memory size is smaller than virtual memory size.

*** ChampSim Multicore Out-of-Order Simulator ***
Warmup Instructions: 50000000
Simulation Instructions: 600000000
Number of CPUs: 1
Page size: 4096

Off-chip DRAM Size: 4 GiB Channels: 1 Width: 64-bit Data Race: 3200 MT/s
Heartbeat CPU 0 instructions: 10000004 cycles: 2777663 heartbeat IPC: 3.6 cumulative IPC: 3.6 (Simulation time: 00 hr 01 min 01 sec)
Heartbeat CPU 0 instructions: 20000001 cycles: 5634805 heartbeat IPC: 3.5 cumulative IPC: 3.549 (Simulation time: 00 hr 01 min 58 sec)
Heartbeat CPU 0 instructions: 30000000 cycles: 8491948 heartbeat IPC: 3.5 cumulative IPC: 3.533 (Simulation time: 00 hr 02 min 54 sec)
Heartbeat CPU 0 instructions: 40000002 cycles: 11120600 heartbeat IPC: 3.804 cumulative IPC: 3.597 (Simulation time: 00 hr 03 min 46 sec)
Heartbeat CPU 0 instructions: 50000002 cycles: 13620600 heartbeat IPC: 4 cumulative IPC: 3.671 (Simulation time: 00 hr 04 min 41 sec)
Warmup finished CPU 0 instructions: 50000002 cycles: 13620601 cumulative IPC: 3.671 (Simulation time: 00 hr 04 min 41 sec)
Warmup complete CPU 0 instructions: 50000002 cycles: 13620601 cumulative IPC: 3.671 (Simulation time: 00 hr 04 min 41 sec)
Heartbeat CPU 0 instructions: 60000002 cycles: 16295256 heartbeat IPC: 3.739 cumulative IPC: 3.739 (Simulation time: 00 hr 05 min 45 sec)
Heartbeat CPU 0 instructions: 70000001 cycles: 18969955 heartbeat IPC: 3.739 cumulative IPC: 3.739 (Simulation time: 00 hr 06 min 47 sec)
Heartbeat CPU 0 instructions: 80000000 cycles: 21644609 heartbeat IPC: 3.739 cumulative IPC: 3.739 (Simulation time: 00 hr 07 min 51 sec)
Heartbeat CPU 0 instructions: 90000003 cycles: 24319671 heartbeat IPC: 3.738 cumulative IPC: 3.739 (Simulation time: 00 hr 08 min 55 sec)
Heartbeat CPU 0 instructions: 100000003 cycles: 26994804 heartbeat IPC: 3.738 cumulative IPC: 3.739 (Simulation time: 00 hr 09 min 55 sec)
Heartbeat CPU 0 instructions: 110000004 cycles: 29669505 heartbeat IPC: 3.739 cumulative IPC: 3.739 (Simulation time: 00 hr 10 min 54 sec)
Heartbeat CPU 0 instructions: 120000003 cycles: 32344188 heartbeat IPC: 3.739 cumulative IPC: 3.739 (Simulation time: 00 hr 11 min 58 sec)
Heartbeat CPU 0 instructions: 130000002 cycles: 35018858 heartbeat IPC: 3.739 cumulative IPC: 3.739 (Simulation time: 00 hr 12 min 56 sec)
Heartbeat CPU 0 instructions: 140000002 cycles: 37693934 heartbeat IPC: 3.738 cumulative IPC: 3.739 (Simulation time: 00 hr 13 min 56 sec)
Heartbeat CPU 0 instructions: 150000000 cycles: 40368589 heartbeat IPC: 3.739 cumulative IPC: 3.739 (Simulation time: 00 hr 15 min 00 sec)
Heartbeat CPU 0 instructions: 160000001 cycles: 43043290 heartbeat IPC: 3.739 cumulative IPC: 3.739 (Simulation time: 00 hr 16 min 08 sec)
Heartbeat CPU 0 instructions: 170000004 cycles: 45717944 heartbeat IPC: 3.739 cumulative IPC: 3.739 (Simulation time: 00 hr 17 min 39 sec)
Heartbeat CPU 0 instructions: 180000000 cycles: 48393167 heartbeat IPC: 3.738 cumulative IPC: 3.739 (Simulation time: 00 hr 18 min 51 sec)
Heartbeat CPU 0 instructions: 190000004 cycles: 51070055 heartbeat IPC: 3.736 cumulative IPC: 3.738 (Simulation time: 00 hr 19 min 59 sec)
Heartbeat CPU 0 instructions: 200000002 cycles: 53744712 heartbeat IPC: 3.739 cumulative IPC: 3.738 (Simulation time: 00 hr 21 min 01 sec)
Heartbeat CPU 0 instructions: 210000003 cycles: 56419413 heartbeat IPC: 3.739 cumulative IPC: 3.738 (Simulation time: 00 hr 22 min 06 sec)
Heartbeat CPU 0 instructions: 220000001 cycles: 59094066 heartbeat IPC: 3.739 cumulative IPC: 3.738 (Simulation time: 00 hr 23 min 10 sec)
Heartbeat CPU 0 instructions: 230000002 cycles: 61770270 heartbeat IPC: 3.737 cumulative IPC: 3.738 (Simulation time: 00 hr 24 min 10 sec)
Heartbeat CPU 0 instructions: 240000003 cycles: 64444924 heartbeat IPC: 3.739 cumulative IPC: 3.738 (Simulation time: 00 hr 25 min 10 sec)
Heartbeat CPU 0 instructions: 250000004 cycles: 67119626 heartbeat IPC: 3.739 cumulative IPC: 3.738 (Simulation time: 00 hr 26 min 09 sec)
Heartbeat CPU 0 instructions: 260000000 cycles: 69794322 heartbeat IPC: 3.739 cumulative IPC: 3.738 (Simulation time: 00 hr 27 min 10 sec)
Heartbeat CPU 0 instructions: 270000003 cycles: 72469336 heartbeat IPC: 3.738 cumulative IPC: 3.738 (Simulation time: 00 hr 28 min 12 sec)
Heartbeat CPU 0 instructions: 280000001 cycles: 75144241 heartbeat IPC: 3.738 cumulative IPC: 3.738 (Simulation time: 00 hr 29 min 13 sec)
Heartbeat CPU 0 instructions: 290000000 cycles: 77818895 heartbeat IPC: 3.739 cumulative IPC: 3.738 (Simulation time: 00 hr 30 min 14 sec)
Heartbeat CPU 0 instructions: 300000001 cycles: 80493597 heartbeat IPC: 3.739 cumulative IPC: 3.738 (Simulation time: 00 hr 31 min 18 sec)
Heartbeat CPU 0 instructions: 310000000 cycles: 83168251 heartbeat IPC: 3.739 cumulative IPC: 3.738 (Simulation time: 00 hr 32 min 18 sec)
Heartbeat CPU 0 instructions: 320000000 cycles: 85843325 heartbeat IPC: 3.738 cumulative IPC: 3.738 (Simulation time: 00 hr 33 min 19 sec)
Heartbeat CPU 0 instructions: 330000002 cycles: 88518023 heartbeat IPC: 3.739 cumulative IPC: 3.738 (Simulation time: 00 hr 34 min 19 sec)
Heartbeat CPU 0 instructions: 340000002 cycles: 91192679 heartbeat IPC: 3.739 cumulative IPC: 3.738 (Simulation time: 00 hr 35 min 18 sec)
Heartbeat CPU 0 instructions: 350000003 cycles: 93867381 heartbeat IPC: 3.739 cumulative IPC: 3.738 (Simulation time: 00 hr 36 min 16 sec)
Heartbeat CPU 0 instructions: 360000001 cycles: 96542911 heartbeat IPC: 3.738 cumulative IPC: 3.738 (Simulation time: 00 hr 37 min 16 sec)
Heartbeat CPU 0 instructions: 370000002 cycles: 99217725 heartbeat IPC: 3.739 cumulative IPC: 3.738 (Simulation time: 00 hr 38 min 18 sec)
Heartbeat CPU 0 instructions: 380000001 cycles: 101892392 heartbeat IPC: 3.739 cumulative IPC: 3.738 (Simulation time: 00 hr 39 min 46 sec)
Heartbeat CPU 0 instructions: 390000004 cycles: 104567079 heartbeat IPC: 3.739 cumulative IPC: 3.738 (Simulation time: 00 hr 41 min 17 sec)
Heartbeat CPU 0 instructions: 400000000 cycles: 107241777 heartbeat IPC: 3.739 cumulative IPC: 3.738 (Simulation time: 00 hr 43 min 34 sec)
Heartbeat CPU 0 instructions: 410000003 cycles: 109917302 heartbeat IPC: 3.738 cumulative IPC: 3.738 (Simulation time: 00 hr 45 min 38 sec)
Heartbeat CPU 0 instructions: 420000003 cycles: 117562166 heartbeat IPC: 1.308 cumulative IPC: 3.56 (Simulation time: 00 hr 49 min 45 sec)
Heartbeat CPU 0 instructions: 430000002 cycles: 136746198 heartbeat IPC: 0.5213 cumulative IPC: 3.086 (Simulation time: 01 hr 00 min 30 sec)
Heartbeat CPU 0 instructions: 440000004 cycles: 155715770 heartbeat IPC: 0.5272 cumulative IPC: 2.745 (Simulation time: 01 hr 10 min 53 sec)
Heartbeat CPU 0 instructions: 450000000 cycles: 174672813 heartbeat IPC: 0.5275 cumulative IPC: 2.484 (Simulation time: 01 hr 21 min 03 sec)
Heartbeat CPU 0 instructions: 460000002 cycles: 193532457 heartbeat IPC: 0.5302 cumulative IPC: 2.279 (Simulation time: 01 hr 31 min 19 sec)
Heartbeat CPU 0 instructions: 470000003 cycles: 212446390 heartbeat IPC: 0.5287 cumulative IPC: 2.112 (Simulation time: 01 hr 41 min 25 sec)
Heartbeat CPU 0 instructions: 480000003 cycles: 231971685 heartbeat IPC: 0.5122 cumulative IPC: 1.969 (Simulation time: 01 hr 51 min 59 sec)
Heartbeat CPU 0 instructions: 490000004 cycles: 250937220 heartbeat IPC: 0.5273 cumulative IPC: 1.854 (Simulation time: 02 hr 02 min 27 sec)
Heartbeat CPU 0 instructions: 500000003 cycles: 269729189 heartbeat IPC: 0.5321 cumulative IPC: 1.757 (Simulation time: 02 hr 13 min 03 sec)
Heartbeat CPU 0 instructions: 510000002 cycles: 288473540 heartbeat IPC: 0.5335 cumulative IPC: 1.674 (Simulation time: 02 hr 23 min 05 sec)
Heartbeat CPU 0 instructions: 520000003 cycles: 307241428 heartbeat IPC: 0.5328 cumulative IPC: 1.601 (Simulation time: 02 hr 33 min 05 sec)
Heartbeat CPU 0 instructions: 530000004 cycles: 325936803 heartbeat IPC: 0.5349 cumulative IPC: 1.537 (Simulation time: 02 hr 43 min 16 sec)
Heartbeat CPU 0 instructions: 540000003 cycles: 344672623 heartbeat IPC: 0.5337 cumulative IPC: 1.48 (Simulation time: 02 hr 54 min 01 sec)
Heartbeat CPU 0 instructions: 550000000 cycles: 363455491 heartbeat IPC: 0.5324 cumulative IPC: 1.429 (Simulation time: 03 hr 04 min 50 sec)
Heartbeat CPU 0 instructions: 560000002 cycles: 382228325 heartbeat IPC: 0.5327 cumulative IPC: 1.384 (Simulation time: 03 hr 15 min 52 sec)
Heartbeat CPU 0 instructions: 570000002 cycles: 401015672 heartbeat IPC: 0.5323 cumulative IPC: 1.342 (Simulation time: 03 hr 26 min 37 sec)
Heartbeat CPU 0 instructions: 580000000 cycles: 419800587 heartbeat IPC: 0.5323 cumulative IPC: 1.305 (Simulation time: 03 hr 37 min 45 sec)
Heartbeat CPU 0 instructions: 590000000 cycles: 438560981 heartbeat IPC: 0.533 cumulative IPC: 1.271 (Simulation time: 03 hr 48 min 57 sec)
*** Reached end of trace: (0, "traces/l1l2l3cache.champsimtrace")
Heartbeat CPU 0 instructions: 600000000 cycles: 457311412 heartbeat IPC: 0.5333 cumulative IPC: 1.24 (Simulation time: 03 hr 59 min 47 sec)
Heartbeat CPU 0 instructions: 610000004 cycles: 468240987 heartbeat IPC: 0.9149 cumulative IPC: 1.232 (Simulation time: 04 hr 04 min 29 sec)
Heartbeat CPU 0 instructions: 620000000 cycles: 483214710 heartbeat IPC: 0.6678 cumulative IPC: 1.214 (Simulation time: 04 hr 08 min 15 sec)
Heartbeat CPU 0 instructions: 630000004 cycles: 498196962 heartbeat IPC: 0.6675 cumulative IPC: 1.197 (Simulation time: 04 hr 10 min 42 sec)
Heartbeat CPU 0 instructions: 640000000 cycles: 505299572 heartbeat IPC: 1.408 cumulative IPC: 1.2 (Simulation time: 04 hr 11 min 58 sec)
Heartbeat CPU 0 instructions: 650000003 cycles: 507974631 heartbeat IPC: 3.738 cumulative IPC: 1.214 (Simulation time: 04 hr 12 min 39 sec)
Simulation finished CPU 0 instructions: 600000001 cycles: 494354031 cumulative IPC: 1.214 (Simulation time: 04 hr 12 min 39 sec)
Simulation complete CPU 0 instructions: 600000001 cycles: 494354031 cumulative IPC: 1.214 (Simulation time: 04 hr 12 min 39 sec)

ChampSim completed all CPUs

=== Simulation ===
CPU 0 runs traces/l1l2l3cache.champsimtrace
Region of Interest Statistics

CPU 0 cumulative IPC: 1.214 instructions: 600000001 cycles: 494354031
CPU 0 Branch Prediction Accuracy: 99.5% MPKI: 1.069 Average ROB Occupancy at Mispredict: 148.9
Branch type MPKI
BRANCH_DIRECT_JUMP: 8.5e-05
BRANCH_INDIRECT: 0.000237
BRANCH_CONDITIONAL: 1.07
BRANCH_DIRECT_CALL: 5e-06
BRANCH_INDIRECT_CALL: 4.67e-05
BRANCH_RETURN: 3.67e-05

LLC TOTAL        ACCESS:    3095847 HIT:     285500 MISS:    2810347
LLC LOAD         ACCESS:    1954446 HIT:     182240 MISS:    1772206
LLC RFO          ACCESS:     561711 HIT:      47137 MISS:     514574
LLC PREFETCH     ACCESS:       6380 HIT:       1704 MISS:       4676
LLC WRITE        ACCESS:     562063 HIT:      49072 MISS:     512991
LLC TRANSLATION  ACCESS:      11247 HIT:       5347 MISS:       5900
LLC PREFETCH REQUESTED:       6380 ISSUED:       6380 USEFUL:       2300 USELESS:        162
LLC AVERAGE MISS LATENCY: 572 cycles
cpu0_DTLB TOTAL        ACCESS:  130457150 HIT:  128442457 MISS:    2014693
cpu0_DTLB LOAD         ACCESS:  130457150 HIT:  128442457 MISS:    2014693
cpu0_DTLB RFO          ACCESS:          0 HIT:          0 MISS:          0
cpu0_DTLB PREFETCH     ACCESS:          0 HIT:          0 MISS:          0
cpu0_DTLB WRITE        ACCESS:          0 HIT:          0 MISS:          0
cpu0_DTLB TRANSLATION  ACCESS:          0 HIT:          0 MISS:          0
cpu0_DTLB PREFETCH REQUESTED:          0 ISSUED:          0 USEFUL:          0 USELESS:          0
cpu0_DTLB AVERAGE MISS LATENCY: 18.61 cycles
cpu0_ITLB TOTAL        ACCESS:       5036 HIT:       4806 MISS:        230
cpu0_ITLB LOAD         ACCESS:       5036 HIT:       4806 MISS:        230
cpu0_ITLB RFO          ACCESS:          0 HIT:          0 MISS:          0
cpu0_ITLB PREFETCH     ACCESS:          0 HIT:          0 MISS:          0
cpu0_ITLB WRITE        ACCESS:          0 HIT:          0 MISS:          0
cpu0_ITLB TRANSLATION  ACCESS:          0 HIT:          0 MISS:          0
cpu0_ITLB PREFETCH REQUESTED:          0 ISSUED:          0 USEFUL:          0 USELESS:          0
cpu0_ITLB AVERAGE MISS LATENCY: 257.2 cycles
cpu0_L1D TOTAL        ACCESS:  177926521 HIT:  166604370 MISS:   11322151
cpu0_L1D LOAD         ACCESS:   69705680 HIT:   67657504 MISS:    2048176
cpu0_L1D RFO          ACCESS:          0 HIT:          0 MISS:          0
cpu0_L1D PREFETCH     ACCESS:          0 HIT:          0 MISS:          0
cpu0_L1D WRITE        ACCESS:  106915344 HIT:   98387597 MISS:    8527747
cpu0_L1D TRANSLATION  ACCESS:    1305497 HIT:     559269 MISS:     746228
cpu0_L1D PREFETCH REQUESTED:          0 ISSUED:          0 USEFUL:          0 USELESS:          0
cpu0_L1D AVERAGE MISS LATENCY: 141.5 cycles
cpu0_L1I TOTAL        ACCESS:       5745 HIT:       3250 MISS:       2495
cpu0_L1I LOAD         ACCESS:       5745 HIT:       3250 MISS:       2495
cpu0_L1I RFO          ACCESS:          0 HIT:          0 MISS:          0
cpu0_L1I PREFETCH     ACCESS:          0 HIT:          0 MISS:          0
cpu0_L1I WRITE        ACCESS:          0 HIT:          0 MISS:          0
cpu0_L1I TRANSLATION  ACCESS:          0 HIT:          0 MISS:          0
cpu0_L1I PREFETCH REQUESTED:          0 ISSUED:          0 USEFUL:          0 USELESS:          0
cpu0_L1I AVERAGE MISS LATENCY: 329.9 cycles
cpu0_L2C TOTAL        ACCESS:    3903769 HIT:    1376346 MISS:    2527423
cpu0_L2C LOAD         ACCESS:    2009349 HIT:      54903 MISS:    1954446
cpu0_L2C RFO          ACCESS:     573534 HIT:      11823 MISS:     561711
cpu0_L2C PREFETCH     ACCESS:          0 HIT:          0 MISS:          0
cpu0_L2C WRITE        ACCESS:     574675 HIT:     574656 MISS:         19
cpu0_L2C TRANSLATION  ACCESS:     746211 HIT:     734964 MISS:      11247
cpu0_L2C PREFETCH REQUESTED:          0 ISSUED:          0 USEFUL:          0 USELESS:          0
cpu0_L2C AVERAGE MISS LATENCY: 656.6 cycles
cpu0_STLB TOTAL        ACCESS:    1982632 HIT:     677143 MISS:    1305489
cpu0_STLB LOAD         ACCESS:    1982632 HIT:     677143 MISS:    1305489
cpu0_STLB RFO          ACCESS:          0 HIT:          0 MISS:          0
cpu0_STLB PREFETCH     ACCESS:          0 HIT:          0 MISS:          0
cpu0_STLB WRITE        ACCESS:          0 HIT:          0 MISS:          0
cpu0_STLB TRANSLATION  ACCESS:          0 HIT:          0 MISS:          0
cpu0_STLB PREFETCH REQUESTED:          0 ISSUED:          0 USEFUL:          0 USELESS:          0
cpu0_STLB AVERAGE MISS LATENCY: 15.67 cycles

DRAM Statistics

Channel 0 RQ ROW_BUFFER_HIT:     109144
  ROW_BUFFER_MISS:    2184713
 AVG DBUS CONGESTED CYCLE: 3.94
WQ ROW_BUFFER_HIT: Channel 0 
  ROW_BUFFER_MISS:     155714
  FULL:     367190
