WARNING: physical memory size is smaller than virtual memory size.

*** ChampSim Multicore Out-of-Order Simulator ***
Warmup Instructions: 50000000
Simulation Instructions: 600000000
Number of CPUs: 1
Page size: 4096

CPU 0 Tage branch predictor
Off-chip DRAM Size: 4 GiB Channels: 1 Width: 64-bit Data Race: 3200 MT/s
Heartbeat CPU 0 instructions: 10000000 cycles: 2565785 heartbeat IPC: 3.897 cumulative IPC: 3.897 (Simulation time: 00 hr 00 min 44 sec)
Heartbeat CPU 0 instructions: 20000000 cycles: 5131274 heartbeat IPC: 3.898 cumulative IPC: 3.898 (Simulation time: 00 hr 01 min 26 sec)
Heartbeat CPU 0 instructions: 30000000 cycles: 7631274 heartbeat IPC: 4 cumulative IPC: 3.931 (Simulation time: 00 hr 02 min 05 sec)
Heartbeat CPU 0 instructions: 40000000 cycles: 10131274 heartbeat IPC: 4 cumulative IPC: 3.948 (Simulation time: 00 hr 02 min 42 sec)
Heartbeat CPU 0 instructions: 50000000 cycles: 12631274 heartbeat IPC: 4 cumulative IPC: 3.958 (Simulation time: 00 hr 03 min 17 sec)
Warmup finished CPU 0 instructions: 50000000 cycles: 12631275 cumulative IPC: 3.958 (Simulation time: 00 hr 03 min 17 sec)
Warmup complete CPU 0 instructions: 50000000 cycles: 12631275 cumulative IPC: 3.958 (Simulation time: 00 hr 03 min 17 sec)
Heartbeat CPU 0 instructions: 60000002 cycles: 15446860 heartbeat IPC: 3.552 cumulative IPC: 3.552 (Simulation time: 00 hr 04 min 00 sec)
Heartbeat CPU 0 instructions: 70000001 cycles: 18261922 heartbeat IPC: 3.552 cumulative IPC: 3.552 (Simulation time: 00 hr 04 min 47 sec)
Heartbeat CPU 0 instructions: 80000004 cycles: 21079021 heartbeat IPC: 3.55 cumulative IPC: 3.551 (Simulation time: 00 hr 05 min 33 sec)
Heartbeat CPU 0 instructions: 90000000 cycles: 23893913 heartbeat IPC: 3.553 cumulative IPC: 3.552 (Simulation time: 00 hr 06 min 26 sec)
Heartbeat CPU 0 instructions: 100000003 cycles: 26710910 heartbeat IPC: 3.55 cumulative IPC: 3.551 (Simulation time: 00 hr 07 min 19 sec)
Heartbeat CPU 0 instructions: 110000000 cycles: 29526056 heartbeat IPC: 3.552 cumulative IPC: 3.551 (Simulation time: 00 hr 08 min 57 sec)
Heartbeat CPU 0 instructions: 120000002 cycles: 32340652 heartbeat IPC: 3.553 cumulative IPC: 3.552 (Simulation time: 00 hr 10 min 31 sec)
Heartbeat CPU 0 instructions: 130000001 cycles: 35155871 heartbeat IPC: 3.552 cumulative IPC: 3.552 (Simulation time: 00 hr 12 min 06 sec)
Heartbeat CPU 0 instructions: 140000002 cycles: 37970732 heartbeat IPC: 3.553 cumulative IPC: 3.552 (Simulation time: 00 hr 13 min 45 sec)
Heartbeat CPU 0 instructions: 150000000 cycles: 40786093 heartbeat IPC: 3.552 cumulative IPC: 3.552 (Simulation time: 00 hr 15 min 22 sec)
Heartbeat CPU 0 instructions: 160000002 cycles: 43603215 heartbeat IPC: 3.55 cumulative IPC: 3.552 (Simulation time: 00 hr 17 min 01 sec)
Heartbeat CPU 0 instructions: 170000000 cycles: 46419904 heartbeat IPC: 3.55 cumulative IPC: 3.551 (Simulation time: 00 hr 18 min 37 sec)
Heartbeat CPU 0 instructions: 180000003 cycles: 49235188 heartbeat IPC: 3.552 cumulative IPC: 3.552 (Simulation time: 00 hr 20 min 25 sec)
Heartbeat CPU 0 instructions: 190000001 cycles: 52051321 heartbeat IPC: 3.551 cumulative IPC: 3.551 (Simulation time: 00 hr 22 min 12 sec)
Heartbeat CPU 0 instructions: 200000001 cycles: 54867266 heartbeat IPC: 3.551 cumulative IPC: 3.551 (Simulation time: 00 hr 23 min 51 sec)
Heartbeat CPU 0 instructions: 210000004 cycles: 57683189 heartbeat IPC: 3.551 cumulative IPC: 3.551 (Simulation time: 00 hr 25 min 28 sec)
Heartbeat CPU 0 instructions: 220000002 cycles: 60498850 heartbeat IPC: 3.552 cumulative IPC: 3.551 (Simulation time: 00 hr 27 min 11 sec)
Heartbeat CPU 0 instructions: 230000001 cycles: 63700086 heartbeat IPC: 3.124 cumulative IPC: 3.525 (Simulation time: 00 hr 29 min 04 sec)
Heartbeat CPU 0 instructions: 240000003 cycles: 66334909 heartbeat IPC: 3.795 cumulative IPC: 3.538 (Simulation time: 00 hr 30 min 47 sec)
Heartbeat CPU 0 instructions: 250000003 cycles: 69150350 heartbeat IPC: 3.552 cumulative IPC: 3.539 (Simulation time: 00 hr 31 min 34 sec)
Heartbeat CPU 0 instructions: 260000002 cycles: 71964519 heartbeat IPC: 3.553 cumulative IPC: 3.539 (Simulation time: 00 hr 32 min 24 sec)
Heartbeat CPU 0 instructions: 270000004 cycles: 74779408 heartbeat IPC: 3.553 cumulative IPC: 3.54 (Simulation time: 00 hr 33 min 15 sec)
Heartbeat CPU 0 instructions: 280000001 cycles: 77595838 heartbeat IPC: 3.551 cumulative IPC: 3.54 (Simulation time: 00 hr 34 min 04 sec)
Heartbeat CPU 0 instructions: 290000002 cycles: 80411330 heartbeat IPC: 3.552 cumulative IPC: 3.541 (Simulation time: 00 hr 34 min 55 sec)
Heartbeat CPU 0 instructions: 300000004 cycles: 83227860 heartbeat IPC: 3.55 cumulative IPC: 3.541 (Simulation time: 00 hr 35 min 46 sec)
Heartbeat CPU 0 instructions: 310000002 cycles: 86044509 heartbeat IPC: 3.55 cumulative IPC: 3.542 (Simulation time: 00 hr 36 min 45 sec)
Heartbeat CPU 0 instructions: 320000000 cycles: 88860973 heartbeat IPC: 3.551 cumulative IPC: 3.542 (Simulation time: 00 hr 37 min 41 sec)
Heartbeat CPU 0 instructions: 330000004 cycles: 91677048 heartbeat IPC: 3.551 cumulative IPC: 3.542 (Simulation time: 00 hr 38 min 34 sec)
Heartbeat CPU 0 instructions: 340000000 cycles: 94493894 heartbeat IPC: 3.55 cumulative IPC: 3.543 (Simulation time: 00 hr 39 min 24 sec)
Heartbeat CPU 0 instructions: 350000003 cycles: 97309935 heartbeat IPC: 3.551 cumulative IPC: 3.543 (Simulation time: 00 hr 40 min 12 sec)
Heartbeat CPU 0 instructions: 360000003 cycles: 100126207 heartbeat IPC: 3.551 cumulative IPC: 3.543 (Simulation time: 00 hr 41 min 00 sec)
Heartbeat CPU 0 instructions: 370000003 cycles: 102943110 heartbeat IPC: 3.55 cumulative IPC: 3.543 (Simulation time: 00 hr 41 min 50 sec)
Heartbeat CPU 0 instructions: 380000003 cycles: 105758097 heartbeat IPC: 3.552 cumulative IPC: 3.544 (Simulation time: 00 hr 42 min 41 sec)
Heartbeat CPU 0 instructions: 390000000 cycles: 108573398 heartbeat IPC: 3.552 cumulative IPC: 3.544 (Simulation time: 00 hr 43 min 33 sec)
Heartbeat CPU 0 instructions: 400000002 cycles: 111390469 heartbeat IPC: 3.55 cumulative IPC: 3.544 (Simulation time: 00 hr 44 min 26 sec)
Heartbeat CPU 0 instructions: 410000004 cycles: 114206053 heartbeat IPC: 3.552 cumulative IPC: 3.544 (Simulation time: 00 hr 45 min 19 sec)
Heartbeat CPU 0 instructions: 420000001 cycles: 117023308 heartbeat IPC: 3.55 cumulative IPC: 3.544 (Simulation time: 00 hr 46 min 11 sec)
Heartbeat CPU 0 instructions: 430000001 cycles: 119838455 heartbeat IPC: 3.552 cumulative IPC: 3.545 (Simulation time: 00 hr 47 min 06 sec)
Heartbeat CPU 0 instructions: 440000002 cycles: 122654349 heartbeat IPC: 3.551 cumulative IPC: 3.545 (Simulation time: 00 hr 47 min 58 sec)
Heartbeat CPU 0 instructions: 450000001 cycles: 125290986 heartbeat IPC: 3.793 cumulative IPC: 3.551 (Simulation time: 00 hr 48 min 53 sec)
Heartbeat CPU 0 instructions: 460000002 cycles: 127914222 heartbeat IPC: 3.812 cumulative IPC: 3.556 (Simulation time: 00 hr 49 min 46 sec)
Heartbeat CPU 0 instructions: 470000004 cycles: 130730950 heartbeat IPC: 3.55 cumulative IPC: 3.556 (Simulation time: 00 hr 50 min 39 sec)
Heartbeat CPU 0 instructions: 480000000 cycles: 133547035 heartbeat IPC: 3.551 cumulative IPC: 3.556 (Simulation time: 00 hr 51 min 27 sec)
Heartbeat CPU 0 instructions: 490000000 cycles: 136363696 heartbeat IPC: 3.55 cumulative IPC: 3.556 (Simulation time: 00 hr 52 min 16 sec)
Heartbeat CPU 0 instructions: 500000002 cycles: 139179205 heartbeat IPC: 3.552 cumulative IPC: 3.556 (Simulation time: 00 hr 53 min 05 sec)
Heartbeat CPU 0 instructions: 510000001 cycles: 141994703 heartbeat IPC: 3.552 cumulative IPC: 3.556 (Simulation time: 00 hr 53 min 56 sec)
Heartbeat CPU 0 instructions: 520000003 cycles: 144810825 heartbeat IPC: 3.551 cumulative IPC: 3.556 (Simulation time: 00 hr 54 min 51 sec)
Heartbeat CPU 0 instructions: 530000002 cycles: 147626851 heartbeat IPC: 3.551 cumulative IPC: 3.556 (Simulation time: 00 hr 55 min 44 sec)
Heartbeat CPU 0 instructions: 540000000 cycles: 150442634 heartbeat IPC: 3.551 cumulative IPC: 3.556 (Simulation time: 00 hr 56 min 33 sec)
Heartbeat CPU 0 instructions: 550000000 cycles: 153257539 heartbeat IPC: 3.553 cumulative IPC: 3.556 (Simulation time: 00 hr 57 min 27 sec)
Heartbeat CPU 0 instructions: 560000001 cycles: 156073446 heartbeat IPC: 3.551 cumulative IPC: 3.555 (Simulation time: 00 hr 58 min 20 sec)
Heartbeat CPU 0 instructions: 570000001 cycles: 158890405 heartbeat IPC: 3.55 cumulative IPC: 3.555 (Simulation time: 00 hr 59 min 12 sec)
Heartbeat CPU 0 instructions: 580000002 cycles: 161707116 heartbeat IPC: 3.55 cumulative IPC: 3.555 (Simulation time: 01 hr 00 min 03 sec)
Heartbeat CPU 0 instructions: 590000003 cycles: 164522255 heartbeat IPC: 3.552 cumulative IPC: 3.555 (Simulation time: 01 hr 00 min 56 sec)
*** Reached end of trace: (0, "traces/l1l2cache.champsimtrace")
Heartbeat CPU 0 instructions: 600000001 cycles: 167339261 heartbeat IPC: 3.55 cumulative IPC: 3.555 (Simulation time: 01 hr 01 min 48 sec)
Heartbeat CPU 0 instructions: 610000001 cycles: 173267716 heartbeat IPC: 1.687 cumulative IPC: 3.486 (Simulation time: 01 hr 03 min 14 sec)
Heartbeat CPU 0 instructions: 620000004 cycles: 175909436 heartbeat IPC: 3.785 cumulative IPC: 3.491 (Simulation time: 01 hr 04 min 11 sec)
Heartbeat CPU 0 instructions: 630000004 cycles: 178724206 heartbeat IPC: 3.553 cumulative IPC: 3.492 (Simulation time: 01 hr 04 min 58 sec)
Heartbeat CPU 0 instructions: 640000000 cycles: 181540223 heartbeat IPC: 3.551 cumulative IPC: 3.493 (Simulation time: 01 hr 05 min 43 sec)
Heartbeat CPU 0 instructions: 650000004 cycles: 184355610 heartbeat IPC: 3.552 cumulative IPC: 3.494 (Simulation time: 01 hr 06 min 35 sec)
Simulation finished CPU 0 instructions: 600000004 cycles: 171724336 cumulative IPC: 3.494 (Simulation time: 01 hr 06 min 35 sec)
Simulation complete CPU 0 instructions: 600000004 cycles: 171724336 cumulative IPC: 3.494 (Simulation time: 01 hr 06 min 35 sec)

ChampSim completed all CPUs

=== Simulation ===
CPU 0 runs traces/l1l2cache.champsimtrace
Region of Interest Statistics

CPU 0 cumulative IPC: 3.494 instructions: 600000004 cycles: 171724336
CPU 0 Branch Prediction Accuracy: 97.76% MPKI: 1.901 Average ROB Occupancy at Mispredict: 151.3
Branch type MPKI
BRANCH_DIRECT_JUMP: 9.5e-05
BRANCH_INDIRECT: 0.000282
BRANCH_CONDITIONAL: 1.9
BRANCH_DIRECT_CALL: 3.33e-06
BRANCH_INDIRECT_CALL: 4.83e-05
BRANCH_RETURN: 3.33e-05

LLC TOTAL        ACCESS:     259667 HIT:     213282 MISS:      46385
LLC LOAD         ACCESS:      59445 HIT:      49676 MISS:       9769
LLC RFO          ACCESS:      99912 HIT:      78065 MISS:      21847
LLC PREFETCH     ACCESS:          0 HIT:          0 MISS:          0
LLC WRITE        ACCESS:     100305 HIT:      85541 MISS:      14764
LLC TRANSLATION  ACCESS:          5 HIT:          0 MISS:          5
LLC PREFETCH REQUESTED:          0 ISSUED:          0 USEFUL:          0 USELESS:          0
LLC AVERAGE MISS LATENCY: 359.3 cycles
cpu0_DTLB TOTAL        ACCESS:   78842404 HIT:   78831716 MISS:      10688
cpu0_DTLB LOAD         ACCESS:   78842404 HIT:   78831716 MISS:      10688
cpu0_DTLB RFO          ACCESS:          0 HIT:          0 MISS:          0
cpu0_DTLB PREFETCH     ACCESS:          0 HIT:          0 MISS:          0
cpu0_DTLB WRITE        ACCESS:          0 HIT:          0 MISS:          0
cpu0_DTLB TRANSLATION  ACCESS:          0 HIT:          0 MISS:          0
cpu0_DTLB PREFETCH REQUESTED:          0 ISSUED:          0 USEFUL:          0 USELESS:          0
cpu0_DTLB AVERAGE MISS LATENCY: 5.95 cycles
cpu0_ITLB TOTAL        ACCESS:       5650 HIT:       5410 MISS:        240
cpu0_ITLB LOAD         ACCESS:       5650 HIT:       5410 MISS:        240
cpu0_ITLB RFO          ACCESS:          0 HIT:          0 MISS:          0
cpu0_ITLB PREFETCH     ACCESS:          0 HIT:          0 MISS:          0
cpu0_ITLB WRITE        ACCESS:          0 HIT:          0 MISS:          0
cpu0_ITLB TRANSLATION  ACCESS:          0 HIT:          0 MISS:          0
cpu0_ITLB PREFETCH REQUESTED:          0 ISSUED:          0 USEFUL:          0 USELESS:          0
cpu0_ITLB AVERAGE MISS LATENCY: 5.771 cycles
cpu0_L1D TOTAL        ACCESS:   97954340 HIT:   96525704 MISS:    1428636
cpu0_L1D LOAD         ACCESS:   38718603 HIT:   38367210 MISS:     351393
cpu0_L1D RFO          ACCESS:          0 HIT:          0 MISS:          0
cpu0_L1D PREFETCH     ACCESS:          0 HIT:          0 MISS:          0
cpu0_L1D WRITE        ACCESS:   59235479 HIT:   58158241 MISS:    1077238
cpu0_L1D TRANSLATION  ACCESS:        258 HIT:        253 MISS:          5
cpu0_L1D PREFETCH REQUESTED:          0 ISSUED:          0 USEFUL:          0 USELESS:          0
cpu0_L1D AVERAGE MISS LATENCY: 10.45 cycles
cpu0_L1I TOTAL        ACCESS:       6446 HIT:       3952 MISS:       2494
cpu0_L1I LOAD         ACCESS:       6446 HIT:       3952 MISS:       2494
cpu0_L1I RFO          ACCESS:          0 HIT:          0 MISS:          0
cpu0_L1I PREFETCH     ACCESS:          0 HIT:          0 MISS:          0
cpu0_L1I WRITE        ACCESS:          0 HIT:          0 MISS:          0
cpu0_L1I TRANSLATION  ACCESS:          0 HIT:          0 MISS:          0
cpu0_L1I PREFETCH REQUESTED:          0 ISSUED:          0 USEFUL:          0 USELESS:          0
cpu0_L1I AVERAGE MISS LATENCY: 575.6 cycles
cpu0_L2C TOTAL        ACCESS:     265739 HIT:     106354 MISS:     159385
cpu0_L2C LOAD         ACCESS:      63735 HIT:       4290 MISS:      59445
cpu0_L2C RFO          ACCESS:     100733 HIT:        821 MISS:      99912
cpu0_L2C PREFETCH     ACCESS:          0 HIT:          0 MISS:          0
cpu0_L2C WRITE        ACCESS:     101266 HIT:     101243 MISS:         23
cpu0_L2C TRANSLATION  ACCESS:          5 HIT:          0 MISS:          5
cpu0_L2C PREFETCH REQUESTED:          0 ISSUED:          0 USEFUL:          0 USELESS:          0
cpu0_L2C AVERAGE MISS LATENCY: 124.8 cycles
cpu0_STLB TOTAL        ACCESS:       3912 HIT:       3655 MISS:        257
cpu0_STLB LOAD         ACCESS:       3912 HIT:       3655 MISS:        257
cpu0_STLB RFO          ACCESS:          0 HIT:          0 MISS:          0
cpu0_STLB PREFETCH     ACCESS:          0 HIT:          0 MISS:          0
cpu0_STLB WRITE        ACCESS:          0 HIT:          0 MISS:          0
cpu0_STLB TRANSLATION  ACCESS:          0 HIT:          0 MISS:          0
cpu0_STLB PREFETCH REQUESTED:          0 ISSUED:          0 USEFUL:          0 USELESS:          0
cpu0_STLB AVERAGE MISS LATENCY: 218.5 cycles

DRAM Statistics

Channel 0 RQ ROW_BUFFER_HIT:      17853
  ROW_BUFFER_MISS:      13759
 AVG DBUS CONGESTED CYCLE: 3.94
WQ ROW_BUFFER_HIT: Channel 0 
  ROW_BUFFER_MISS:       3001
  FULL:       7545
