WARNING: physical memory size is smaller than virtual memory size.

*** ChampSim Multicore Out-of-Order Simulator ***
Warmup Instructions: 50000000
Simulation Instructions: 600000000
Number of CPUs: 1
Page size: 4096

CPU 0 Tage branch predictor
Off-chip DRAM Size: 4 GiB Channels: 1 Width: 64-bit Data Race: 3200 MT/s
Heartbeat CPU 0 instructions: 10000000 cycles: 2565785 heartbeat IPC: 3.897 cumulative IPC: 3.897 (Simulation time: 00 hr 00 min 41 sec)
Heartbeat CPU 0 instructions: 20000000 cycles: 5131274 heartbeat IPC: 3.898 cumulative IPC: 3.898 (Simulation time: 00 hr 01 min 24 sec)
Heartbeat CPU 0 instructions: 30000000 cycles: 7631274 heartbeat IPC: 4 cumulative IPC: 3.931 (Simulation time: 00 hr 02 min 02 sec)
Heartbeat CPU 0 instructions: 40000000 cycles: 10131274 heartbeat IPC: 4 cumulative IPC: 3.948 (Simulation time: 00 hr 02 min 41 sec)
Heartbeat CPU 0 instructions: 50000000 cycles: 12631274 heartbeat IPC: 4 cumulative IPC: 3.958 (Simulation time: 00 hr 03 min 19 sec)
Warmup finished CPU 0 instructions: 50000000 cycles: 12631275 cumulative IPC: 3.958 (Simulation time: 00 hr 03 min 19 sec)
Warmup complete CPU 0 instructions: 50000000 cycles: 12631275 cumulative IPC: 3.958 (Simulation time: 00 hr 03 min 19 sec)
Heartbeat CPU 0 instructions: 60000002 cycles: 15446860 heartbeat IPC: 3.552 cumulative IPC: 3.552 (Simulation time: 00 hr 04 min 03 sec)
Heartbeat CPU 0 instructions: 70000001 cycles: 18261922 heartbeat IPC: 3.552 cumulative IPC: 3.552 (Simulation time: 00 hr 04 min 45 sec)
Heartbeat CPU 0 instructions: 80000004 cycles: 21079021 heartbeat IPC: 3.55 cumulative IPC: 3.551 (Simulation time: 00 hr 05 min 26 sec)
Heartbeat CPU 0 instructions: 90000000 cycles: 23893913 heartbeat IPC: 3.553 cumulative IPC: 3.552 (Simulation time: 00 hr 06 min 10 sec)
Heartbeat CPU 0 instructions: 100000003 cycles: 26710910 heartbeat IPC: 3.55 cumulative IPC: 3.551 (Simulation time: 00 hr 06 min 52 sec)
Heartbeat CPU 0 instructions: 110000000 cycles: 29526056 heartbeat IPC: 3.552 cumulative IPC: 3.551 (Simulation time: 00 hr 07 min 36 sec)
Heartbeat CPU 0 instructions: 120000002 cycles: 32340652 heartbeat IPC: 3.553 cumulative IPC: 3.552 (Simulation time: 00 hr 08 min 17 sec)
Heartbeat CPU 0 instructions: 130000001 cycles: 35155871 heartbeat IPC: 3.552 cumulative IPC: 3.552 (Simulation time: 00 hr 08 min 58 sec)
Heartbeat CPU 0 instructions: 140000002 cycles: 37970732 heartbeat IPC: 3.553 cumulative IPC: 3.552 (Simulation time: 00 hr 09 min 42 sec)
Heartbeat CPU 0 instructions: 150000000 cycles: 40786093 heartbeat IPC: 3.552 cumulative IPC: 3.552 (Simulation time: 00 hr 10 min 23 sec)
Heartbeat CPU 0 instructions: 160000002 cycles: 43603215 heartbeat IPC: 3.55 cumulative IPC: 3.552 (Simulation time: 00 hr 11 min 05 sec)
Heartbeat CPU 0 instructions: 170000000 cycles: 46419904 heartbeat IPC: 3.55 cumulative IPC: 3.551 (Simulation time: 00 hr 11 min 46 sec)
Heartbeat CPU 0 instructions: 180000003 cycles: 49235188 heartbeat IPC: 3.552 cumulative IPC: 3.552 (Simulation time: 00 hr 12 min 28 sec)
Heartbeat CPU 0 instructions: 190000001 cycles: 52051321 heartbeat IPC: 3.551 cumulative IPC: 3.551 (Simulation time: 00 hr 13 min 09 sec)
Heartbeat CPU 0 instructions: 200000001 cycles: 54867266 heartbeat IPC: 3.551 cumulative IPC: 3.551 (Simulation time: 00 hr 13 min 50 sec)
Heartbeat CPU 0 instructions: 210000004 cycles: 57683189 heartbeat IPC: 3.551 cumulative IPC: 3.551 (Simulation time: 00 hr 14 min 31 sec)
Heartbeat CPU 0 instructions: 220000002 cycles: 60498850 heartbeat IPC: 3.552 cumulative IPC: 3.551 (Simulation time: 00 hr 15 min 11 sec)
Heartbeat CPU 0 instructions: 230000004 cycles: 63571912 heartbeat IPC: 3.254 cumulative IPC: 3.534 (Simulation time: 00 hr 15 min 56 sec)
Heartbeat CPU 0 instructions: 240000003 cycles: 66791520 heartbeat IPC: 3.106 cumulative IPC: 3.508 (Simulation time: 00 hr 16 min 44 sec)
Heartbeat CPU 0 instructions: 250000003 cycles: 69606961 heartbeat IPC: 3.552 cumulative IPC: 3.51 (Simulation time: 00 hr 17 min 25 sec)
Heartbeat CPU 0 instructions: 260000002 cycles: 72421130 heartbeat IPC: 3.553 cumulative IPC: 3.512 (Simulation time: 00 hr 18 min 04 sec)
Heartbeat CPU 0 instructions: 270000004 cycles: 75236019 heartbeat IPC: 3.553 cumulative IPC: 3.514 (Simulation time: 00 hr 18 min 44 sec)
Heartbeat CPU 0 instructions: 280000001 cycles: 78052449 heartbeat IPC: 3.551 cumulative IPC: 3.516 (Simulation time: 00 hr 19 min 25 sec)
Heartbeat CPU 0 instructions: 290000002 cycles: 80867941 heartbeat IPC: 3.552 cumulative IPC: 3.517 (Simulation time: 00 hr 20 min 04 sec)
Heartbeat CPU 0 instructions: 300000004 cycles: 83684471 heartbeat IPC: 3.55 cumulative IPC: 3.518 (Simulation time: 00 hr 20 min 43 sec)
Heartbeat CPU 0 instructions: 310000002 cycles: 86501120 heartbeat IPC: 3.55 cumulative IPC: 3.52 (Simulation time: 00 hr 21 min 22 sec)
Heartbeat CPU 0 instructions: 320000000 cycles: 89317584 heartbeat IPC: 3.551 cumulative IPC: 3.521 (Simulation time: 00 hr 22 min 01 sec)
Heartbeat CPU 0 instructions: 330000004 cycles: 92133659 heartbeat IPC: 3.551 cumulative IPC: 3.522 (Simulation time: 00 hr 22 min 40 sec)
Heartbeat CPU 0 instructions: 340000000 cycles: 94950505 heartbeat IPC: 3.55 cumulative IPC: 3.523 (Simulation time: 00 hr 23 min 19 sec)
Heartbeat CPU 0 instructions: 350000003 cycles: 97766546 heartbeat IPC: 3.551 cumulative IPC: 3.524 (Simulation time: 00 hr 23 min 58 sec)
Heartbeat CPU 0 instructions: 360000003 cycles: 100582818 heartbeat IPC: 3.551 cumulative IPC: 3.525 (Simulation time: 00 hr 24 min 37 sec)
Heartbeat CPU 0 instructions: 370000003 cycles: 103399721 heartbeat IPC: 3.55 cumulative IPC: 3.525 (Simulation time: 00 hr 25 min 17 sec)
Heartbeat CPU 0 instructions: 380000003 cycles: 106214708 heartbeat IPC: 3.552 cumulative IPC: 3.526 (Simulation time: 00 hr 25 min 58 sec)
Heartbeat CPU 0 instructions: 390000000 cycles: 109030009 heartbeat IPC: 3.552 cumulative IPC: 3.527 (Simulation time: 00 hr 26 min 38 sec)
Heartbeat CPU 0 instructions: 400000002 cycles: 111847080 heartbeat IPC: 3.55 cumulative IPC: 3.528 (Simulation time: 00 hr 27 min 17 sec)
Heartbeat CPU 0 instructions: 410000004 cycles: 114662664 heartbeat IPC: 3.552 cumulative IPC: 3.528 (Simulation time: 00 hr 27 min 56 sec)
Heartbeat CPU 0 instructions: 420000001 cycles: 117479919 heartbeat IPC: 3.55 cumulative IPC: 3.529 (Simulation time: 00 hr 28 min 36 sec)
Heartbeat CPU 0 instructions: 430000001 cycles: 120295066 heartbeat IPC: 3.552 cumulative IPC: 3.53 (Simulation time: 00 hr 29 min 15 sec)
Heartbeat CPU 0 instructions: 440000002 cycles: 123110960 heartbeat IPC: 3.551 cumulative IPC: 3.53 (Simulation time: 00 hr 29 min 54 sec)
Heartbeat CPU 0 instructions: 450000001 cycles: 125747562 heartbeat IPC: 3.793 cumulative IPC: 3.536 (Simulation time: 00 hr 30 min 35 sec)
Heartbeat CPU 0 instructions: 460000002 cycles: 128370798 heartbeat IPC: 3.812 cumulative IPC: 3.542 (Simulation time: 00 hr 31 min 17 sec)
Heartbeat CPU 0 instructions: 470000004 cycles: 131187526 heartbeat IPC: 3.55 cumulative IPC: 3.543 (Simulation time: 00 hr 31 min 57 sec)
Heartbeat CPU 0 instructions: 480000000 cycles: 134003611 heartbeat IPC: 3.551 cumulative IPC: 3.543 (Simulation time: 00 hr 32 min 37 sec)
Heartbeat CPU 0 instructions: 490000000 cycles: 136820272 heartbeat IPC: 3.55 cumulative IPC: 3.543 (Simulation time: 00 hr 33 min 17 sec)
Heartbeat CPU 0 instructions: 500000002 cycles: 139635781 heartbeat IPC: 3.552 cumulative IPC: 3.543 (Simulation time: 00 hr 33 min 57 sec)
Heartbeat CPU 0 instructions: 510000001 cycles: 142451279 heartbeat IPC: 3.552 cumulative IPC: 3.543 (Simulation time: 00 hr 34 min 37 sec)
Heartbeat CPU 0 instructions: 520000003 cycles: 145267401 heartbeat IPC: 3.551 cumulative IPC: 3.544 (Simulation time: 00 hr 35 min 17 sec)
Heartbeat CPU 0 instructions: 530000002 cycles: 148083427 heartbeat IPC: 3.551 cumulative IPC: 3.544 (Simulation time: 00 hr 35 min 56 sec)
Heartbeat CPU 0 instructions: 540000000 cycles: 150899210 heartbeat IPC: 3.551 cumulative IPC: 3.544 (Simulation time: 00 hr 36 min 35 sec)
Heartbeat CPU 0 instructions: 550000000 cycles: 153714115 heartbeat IPC: 3.553 cumulative IPC: 3.544 (Simulation time: 00 hr 37 min 13 sec)
Heartbeat CPU 0 instructions: 560000001 cycles: 156530022 heartbeat IPC: 3.551 cumulative IPC: 3.544 (Simulation time: 00 hr 37 min 51 sec)
Heartbeat CPU 0 instructions: 570000001 cycles: 159346981 heartbeat IPC: 3.55 cumulative IPC: 3.544 (Simulation time: 00 hr 38 min 27 sec)
Heartbeat CPU 0 instructions: 580000002 cycles: 162163692 heartbeat IPC: 3.55 cumulative IPC: 3.544 (Simulation time: 00 hr 39 min 04 sec)
Heartbeat CPU 0 instructions: 590000003 cycles: 164978831 heartbeat IPC: 3.552 cumulative IPC: 3.545 (Simulation time: 00 hr 39 min 41 sec)
*** Reached end of trace: (0, "traces/l1l2cache.champsimtrace")
Heartbeat CPU 0 instructions: 600000001 cycles: 167795837 heartbeat IPC: 3.55 cumulative IPC: 3.545 (Simulation time: 00 hr 40 min 16 sec)
Heartbeat CPU 0 instructions: 610000001 cycles: 177164710 heartbeat IPC: 1.067 cumulative IPC: 3.404 (Simulation time: 00 hr 41 min 28 sec)
Heartbeat CPU 0 instructions: 620000004 cycles: 180029030 heartbeat IPC: 3.491 cumulative IPC: 3.405 (Simulation time: 00 hr 42 min 05 sec)
Heartbeat CPU 0 instructions: 630000004 cycles: 182843800 heartbeat IPC: 3.553 cumulative IPC: 3.408 (Simulation time: 00 hr 42 min 50 sec)
Heartbeat CPU 0 instructions: 640000000 cycles: 185659817 heartbeat IPC: 3.551 cumulative IPC: 3.41 (Simulation time: 00 hr 43 min 35 sec)
Heartbeat CPU 0 instructions: 650000004 cycles: 188475204 heartbeat IPC: 3.552 cumulative IPC: 3.412 (Simulation time: 00 hr 44 min 17 sec)
Simulation finished CPU 0 instructions: 600000004 cycles: 175843930 cumulative IPC: 3.412 (Simulation time: 00 hr 44 min 17 sec)
Simulation complete CPU 0 instructions: 600000004 cycles: 175843930 cumulative IPC: 3.412 (Simulation time: 00 hr 44 min 17 sec)

ChampSim completed all CPUs

=== Simulation ===
CPU 0 runs traces/l1l2cache.champsimtrace
Region of Interest Statistics

CPU 0 cumulative IPC: 3.412 instructions: 600000004 cycles: 175843930
CPU 0 Branch Prediction Accuracy: 97.76% MPKI: 1.901 Average ROB Occupancy at Mispredict: 151.3
Branch type MPKI
BRANCH_DIRECT_JUMP: 9.5e-05
BRANCH_INDIRECT: 0.000282
BRANCH_CONDITIONAL: 1.9
BRANCH_DIRECT_CALL: 3.33e-06
BRANCH_INDIRECT_CALL: 4.83e-05
BRANCH_RETURN: 3.33e-05

LLC TOTAL        ACCESS:     259666 HIT:     207190 MISS:      52476
LLC LOAD         ACCESS:      59445 HIT:      47748 MISS:      11697
LLC RFO          ACCESS:      99913 HIT:      59253 MISS:      40660
LLC PREFETCH     ACCESS:          0 HIT:          0 MISS:          0
LLC WRITE        ACCESS:     100303 HIT:     100189 MISS:        114
LLC TRANSLATION  ACCESS:          5 HIT:          0 MISS:          5
LLC PREFETCH REQUESTED:          0 ISSUED:          0 USEFUL:          0 USELESS:          0
LLC AVERAGE MISS LATENCY: 808.3 cycles
cpu0_DTLB TOTAL        ACCESS:   78727588 HIT:   78716800 MISS:      10788
cpu0_DTLB LOAD         ACCESS:   78727588 HIT:   78716800 MISS:      10788
cpu0_DTLB RFO          ACCESS:          0 HIT:          0 MISS:          0
cpu0_DTLB PREFETCH     ACCESS:          0 HIT:          0 MISS:          0
cpu0_DTLB WRITE        ACCESS:          0 HIT:          0 MISS:          0
cpu0_DTLB TRANSLATION  ACCESS:          0 HIT:          0 MISS:          0
cpu0_DTLB PREFETCH REQUESTED:          0 ISSUED:          0 USEFUL:          0 USELESS:          0
cpu0_DTLB AVERAGE MISS LATENCY: 5.918 cycles
cpu0_ITLB TOTAL        ACCESS:       5652 HIT:       5412 MISS:        240
cpu0_ITLB LOAD         ACCESS:       5652 HIT:       5412 MISS:        240
cpu0_ITLB RFO          ACCESS:          0 HIT:          0 MISS:          0
cpu0_ITLB PREFETCH     ACCESS:          0 HIT:          0 MISS:          0
cpu0_ITLB WRITE        ACCESS:          0 HIT:          0 MISS:          0
cpu0_ITLB TRANSLATION  ACCESS:          0 HIT:          0 MISS:          0
cpu0_ITLB PREFETCH REQUESTED:          0 ISSUED:          0 USEFUL:          0 USELESS:          0
cpu0_ITLB AVERAGE MISS LATENCY: 5.771 cycles
cpu0_L1D TOTAL        ACCESS:   97785800 HIT:   96307328 MISS:    1478472
cpu0_L1D LOAD         ACCESS:   38622619 HIT:   38259896 MISS:     362723
cpu0_L1D RFO          ACCESS:          0 HIT:          0 MISS:          0
cpu0_L1D PREFETCH     ACCESS:          0 HIT:          0 MISS:          0
cpu0_L1D WRITE        ACCESS:   59162923 HIT:   58047179 MISS:    1115744
cpu0_L1D TRANSLATION  ACCESS:        258 HIT:        253 MISS:          5
cpu0_L1D PREFETCH REQUESTED:          0 ISSUED:          0 USEFUL:          0 USELESS:          0
cpu0_L1D AVERAGE MISS LATENCY: 26.99 cycles
cpu0_L1I TOTAL        ACCESS:       6447 HIT:       3941 MISS:       2506
cpu0_L1I LOAD         ACCESS:       6447 HIT:       3941 MISS:       2506
cpu0_L1I RFO          ACCESS:          0 HIT:          0 MISS:          0
cpu0_L1I PREFETCH     ACCESS:          0 HIT:          0 MISS:          0
cpu0_L1I WRITE        ACCESS:          0 HIT:          0 MISS:          0
cpu0_L1I TRANSLATION  ACCESS:          0 HIT:          0 MISS:          0
cpu0_L1I PREFETCH REQUESTED:          0 ISSUED:          0 USEFUL:          0 USELESS:          0
cpu0_L1I AVERAGE MISS LATENCY: 616.2 cycles
cpu0_L2C TOTAL        ACCESS:     265743 HIT:     106360 MISS:     159383
cpu0_L2C LOAD         ACCESS:      63734 HIT:       4289 MISS:      59445
cpu0_L2C RFO          ACCESS:     100739 HIT:        826 MISS:      99913
cpu0_L2C PREFETCH     ACCESS:          0 HIT:          0 MISS:          0
cpu0_L2C WRITE        ACCESS:     101265 HIT:     101245 MISS:         20
cpu0_L2C TRANSLATION  ACCESS:          5 HIT:          0 MISS:          5
cpu0_L2C PREFETCH REQUESTED:          0 ISSUED:          0 USEFUL:          0 USELESS:          0
cpu0_L2C AVERAGE MISS LATENCY: 286.5 cycles
cpu0_STLB TOTAL        ACCESS:       3912 HIT:       3655 MISS:        257
cpu0_STLB LOAD         ACCESS:       3912 HIT:       3655 MISS:        257
cpu0_STLB RFO          ACCESS:          0 HIT:          0 MISS:          0
cpu0_STLB PREFETCH     ACCESS:          0 HIT:          0 MISS:          0
cpu0_STLB WRITE        ACCESS:          0 HIT:          0 MISS:          0
cpu0_STLB TRANSLATION  ACCESS:          0 HIT:          0 MISS:          0
cpu0_STLB PREFETCH REQUESTED:          0 ISSUED:          0 USEFUL:          0 USELESS:          0
cpu0_STLB AVERAGE MISS LATENCY: 218.4 cycles

DRAM Statistics

Channel 0 RQ ROW_BUFFER_HIT:      22157
  ROW_BUFFER_MISS:      30192
 AVG DBUS CONGESTED CYCLE: 3.978
WQ ROW_BUFFER_HIT: Channel 0 
  ROW_BUFFER_MISS:       7745
  FULL:      27315
