WARNING: physical memory size is smaller than virtual memory size.

*** ChampSim Multicore Out-of-Order Simulator ***
Warmup Instructions: 50000000
Simulation Instructions: 600000000
Number of CPUs: 1
Page size: 4096

CPU 0 Tage branch predictor
Off-chip DRAM Size: 4 GiB Channels: 1 Width: 64-bit Data Race: 3200 MT/s
Heartbeat CPU 0 instructions: 10000002 cycles: 2565786 heartbeat IPC: 3.897 cumulative IPC: 3.897 (Simulation time: 00 hr 01 min 00 sec)
Heartbeat CPU 0 instructions: 20000000 cycles: 5131275 heartbeat IPC: 3.898 cumulative IPC: 3.898 (Simulation time: 00 hr 02 min 06 sec)
Heartbeat CPU 0 instructions: 30000000 cycles: 7631275 heartbeat IPC: 4 cumulative IPC: 3.931 (Simulation time: 00 hr 03 min 03 sec)
Heartbeat CPU 0 instructions: 40000000 cycles: 10131275 heartbeat IPC: 4 cumulative IPC: 3.948 (Simulation time: 00 hr 03 min 57 sec)
Heartbeat CPU 0 instructions: 50000000 cycles: 12631275 heartbeat IPC: 4 cumulative IPC: 3.958 (Simulation time: 00 hr 04 min 51 sec)
Warmup finished CPU 0 instructions: 50000000 cycles: 12631276 cumulative IPC: 3.958 (Simulation time: 00 hr 04 min 51 sec)
Warmup complete CPU 0 instructions: 50000000 cycles: 12631276 cumulative IPC: 3.958 (Simulation time: 00 hr 04 min 51 sec)
Heartbeat CPU 0 instructions: 60000002 cycles: 15446861 heartbeat IPC: 3.552 cumulative IPC: 3.552 (Simulation time: 00 hr 05 min 55 sec)
Heartbeat CPU 0 instructions: 70000001 cycles: 18261923 heartbeat IPC: 3.552 cumulative IPC: 3.552 (Simulation time: 00 hr 07 min 03 sec)
Heartbeat CPU 0 instructions: 80000004 cycles: 21079022 heartbeat IPC: 3.55 cumulative IPC: 3.551 (Simulation time: 00 hr 08 min 03 sec)
Heartbeat CPU 0 instructions: 90000000 cycles: 23893914 heartbeat IPC: 3.553 cumulative IPC: 3.552 (Simulation time: 00 hr 09 min 11 sec)
Heartbeat CPU 0 instructions: 100000003 cycles: 26710911 heartbeat IPC: 3.55 cumulative IPC: 3.551 (Simulation time: 00 hr 10 min 15 sec)
Heartbeat CPU 0 instructions: 110000000 cycles: 29526057 heartbeat IPC: 3.552 cumulative IPC: 3.551 (Simulation time: 00 hr 11 min 13 sec)
Heartbeat CPU 0 instructions: 120000002 cycles: 32340653 heartbeat IPC: 3.553 cumulative IPC: 3.552 (Simulation time: 00 hr 12 min 13 sec)
Heartbeat CPU 0 instructions: 130000001 cycles: 35155872 heartbeat IPC: 3.552 cumulative IPC: 3.552 (Simulation time: 00 hr 13 min 18 sec)
Heartbeat CPU 0 instructions: 140000002 cycles: 37970733 heartbeat IPC: 3.553 cumulative IPC: 3.552 (Simulation time: 00 hr 14 min 17 sec)
Heartbeat CPU 0 instructions: 150000000 cycles: 40786094 heartbeat IPC: 3.552 cumulative IPC: 3.552 (Simulation time: 00 hr 15 min 18 sec)
Heartbeat CPU 0 instructions: 160000002 cycles: 43603216 heartbeat IPC: 3.55 cumulative IPC: 3.552 (Simulation time: 00 hr 16 min 21 sec)
Heartbeat CPU 0 instructions: 170000000 cycles: 46419905 heartbeat IPC: 3.55 cumulative IPC: 3.551 (Simulation time: 00 hr 17 min 26 sec)
Heartbeat CPU 0 instructions: 180000003 cycles: 49235189 heartbeat IPC: 3.552 cumulative IPC: 3.552 (Simulation time: 00 hr 18 min 29 sec)
Heartbeat CPU 0 instructions: 190000001 cycles: 52051322 heartbeat IPC: 3.551 cumulative IPC: 3.551 (Simulation time: 00 hr 19 min 32 sec)
Heartbeat CPU 0 instructions: 200000001 cycles: 54867267 heartbeat IPC: 3.551 cumulative IPC: 3.551 (Simulation time: 00 hr 20 min 33 sec)
Heartbeat CPU 0 instructions: 210000004 cycles: 57683190 heartbeat IPC: 3.551 cumulative IPC: 3.551 (Simulation time: 00 hr 21 min 31 sec)
Heartbeat CPU 0 instructions: 220000002 cycles: 60498851 heartbeat IPC: 3.552 cumulative IPC: 3.551 (Simulation time: 00 hr 22 min 29 sec)
Heartbeat CPU 0 instructions: 230000001 cycles: 63988207 heartbeat IPC: 2.866 cumulative IPC: 3.505 (Simulation time: 00 hr 23 min 40 sec)
Heartbeat CPU 0 instructions: 240000003 cycles: 69134780 heartbeat IPC: 1.943 cumulative IPC: 3.363 (Simulation time: 00 hr 25 min 13 sec)
Heartbeat CPU 0 instructions: 250000003 cycles: 71950221 heartbeat IPC: 3.552 cumulative IPC: 3.372 (Simulation time: 00 hr 26 min 17 sec)
Heartbeat CPU 0 instructions: 260000002 cycles: 74764390 heartbeat IPC: 3.553 cumulative IPC: 3.38 (Simulation time: 00 hr 27 min 19 sec)
Heartbeat CPU 0 instructions: 270000004 cycles: 77579279 heartbeat IPC: 3.553 cumulative IPC: 3.387 (Simulation time: 00 hr 28 min 22 sec)
Heartbeat CPU 0 instructions: 280000001 cycles: 80395709 heartbeat IPC: 3.551 cumulative IPC: 3.394 (Simulation time: 00 hr 29 min 26 sec)
Heartbeat CPU 0 instructions: 290000002 cycles: 83211201 heartbeat IPC: 3.552 cumulative IPC: 3.4 (Simulation time: 00 hr 30 min 28 sec)
Heartbeat CPU 0 instructions: 300000004 cycles: 86027731 heartbeat IPC: 3.55 cumulative IPC: 3.406 (Simulation time: 00 hr 31 min 31 sec)
Heartbeat CPU 0 instructions: 310000002 cycles: 88844380 heartbeat IPC: 3.55 cumulative IPC: 3.411 (Simulation time: 00 hr 32 min 32 sec)
Heartbeat CPU 0 instructions: 320000000 cycles: 91660844 heartbeat IPC: 3.551 cumulative IPC: 3.416 (Simulation time: 00 hr 33 min 32 sec)
Heartbeat CPU 0 instructions: 330000004 cycles: 94476919 heartbeat IPC: 3.551 cumulative IPC: 3.421 (Simulation time: 00 hr 34 min 26 sec)
Heartbeat CPU 0 instructions: 340000000 cycles: 97293765 heartbeat IPC: 3.55 cumulative IPC: 3.425 (Simulation time: 00 hr 35 min 10 sec)
Heartbeat CPU 0 instructions: 350000003 cycles: 100109806 heartbeat IPC: 3.551 cumulative IPC: 3.429 (Simulation time: 00 hr 35 min 55 sec)
Heartbeat CPU 0 instructions: 360000003 cycles: 102926078 heartbeat IPC: 3.551 cumulative IPC: 3.433 (Simulation time: 00 hr 37 min 28 sec)
Heartbeat CPU 0 instructions: 370000003 cycles: 105742981 heartbeat IPC: 3.55 cumulative IPC: 3.437 (Simulation time: 00 hr 39 min 03 sec)
Heartbeat CPU 0 instructions: 380000003 cycles: 108557968 heartbeat IPC: 3.552 cumulative IPC: 3.44 (Simulation time: 00 hr 39 min 57 sec)
Heartbeat CPU 0 instructions: 390000000 cycles: 111373269 heartbeat IPC: 3.552 cumulative IPC: 3.443 (Simulation time: 00 hr 40 min 39 sec)
Heartbeat CPU 0 instructions: 400000002 cycles: 114190340 heartbeat IPC: 3.55 cumulative IPC: 3.446 (Simulation time: 00 hr 41 min 21 sec)
Heartbeat CPU 0 instructions: 410000004 cycles: 117005924 heartbeat IPC: 3.552 cumulative IPC: 3.449 (Simulation time: 00 hr 42 min 04 sec)
Heartbeat CPU 0 instructions: 420000001 cycles: 119823179 heartbeat IPC: 3.55 cumulative IPC: 3.452 (Simulation time: 00 hr 42 min 47 sec)
Heartbeat CPU 0 instructions: 430000001 cycles: 122638326 heartbeat IPC: 3.552 cumulative IPC: 3.454 (Simulation time: 00 hr 43 min 30 sec)
Heartbeat CPU 0 instructions: 440000002 cycles: 125454220 heartbeat IPC: 3.551 cumulative IPC: 3.457 (Simulation time: 00 hr 44 min 14 sec)
Heartbeat CPU 0 instructions: 450000001 cycles: 128796681 heartbeat IPC: 2.992 cumulative IPC: 3.443 (Simulation time: 00 hr 45 min 05 sec)
Heartbeat CPU 0 instructions: 460000002 cycles: 133938304 heartbeat IPC: 1.945 cumulative IPC: 3.38 (Simulation time: 00 hr 46 min 11 sec)
Heartbeat CPU 0 instructions: 470000004 cycles: 136755032 heartbeat IPC: 3.55 cumulative IPC: 3.384 (Simulation time: 00 hr 46 min 54 sec)
Heartbeat CPU 0 instructions: 480000000 cycles: 139571117 heartbeat IPC: 3.551 cumulative IPC: 3.387 (Simulation time: 00 hr 47 min 36 sec)
Heartbeat CPU 0 instructions: 490000000 cycles: 142387778 heartbeat IPC: 3.55 cumulative IPC: 3.391 (Simulation time: 00 hr 48 min 19 sec)
Heartbeat CPU 0 instructions: 500000002 cycles: 145203287 heartbeat IPC: 3.552 cumulative IPC: 3.394 (Simulation time: 00 hr 49 min 01 sec)
Heartbeat CPU 0 instructions: 510000001 cycles: 148018785 heartbeat IPC: 3.552 cumulative IPC: 3.398 (Simulation time: 00 hr 49 min 42 sec)
Heartbeat CPU 0 instructions: 520000003 cycles: 150834907 heartbeat IPC: 3.551 cumulative IPC: 3.401 (Simulation time: 00 hr 50 min 23 sec)
Heartbeat CPU 0 instructions: 530000002 cycles: 153650933 heartbeat IPC: 3.551 cumulative IPC: 3.404 (Simulation time: 00 hr 51 min 04 sec)
Heartbeat CPU 0 instructions: 540000000 cycles: 156466716 heartbeat IPC: 3.551 cumulative IPC: 3.407 (Simulation time: 00 hr 51 min 46 sec)
Heartbeat CPU 0 instructions: 550000000 cycles: 159281621 heartbeat IPC: 3.553 cumulative IPC: 3.409 (Simulation time: 00 hr 52 min 28 sec)
Heartbeat CPU 0 instructions: 560000001 cycles: 162097528 heartbeat IPC: 3.551 cumulative IPC: 3.412 (Simulation time: 00 hr 53 min 10 sec)
Heartbeat CPU 0 instructions: 570000001 cycles: 164914487 heartbeat IPC: 3.55 cumulative IPC: 3.415 (Simulation time: 00 hr 53 min 51 sec)
Heartbeat CPU 0 instructions: 580000002 cycles: 167731198 heartbeat IPC: 3.55 cumulative IPC: 3.417 (Simulation time: 00 hr 54 min 33 sec)
Heartbeat CPU 0 instructions: 590000003 cycles: 170546337 heartbeat IPC: 3.552 cumulative IPC: 3.42 (Simulation time: 00 hr 55 min 14 sec)
*** Reached end of trace: (0, "traces/l1l2cache.champsimtrace")
Heartbeat CPU 0 instructions: 600000001 cycles: 173363343 heartbeat IPC: 3.55 cumulative IPC: 3.422 (Simulation time: 00 hr 55 min 59 sec)
Heartbeat CPU 0 instructions: 610000000 cycles: 176319300 heartbeat IPC: 3.383 cumulative IPC: 3.421 (Simulation time: 00 hr 56 min 45 sec)
Heartbeat CPU 0 instructions: 620000004 cycles: 178968576 heartbeat IPC: 3.775 cumulative IPC: 3.427 (Simulation time: 00 hr 57 min 35 sec)
Heartbeat CPU 0 instructions: 630000004 cycles: 181783346 heartbeat IPC: 3.553 cumulative IPC: 3.429 (Simulation time: 00 hr 58 min 16 sec)
Heartbeat CPU 0 instructions: 640000000 cycles: 184599363 heartbeat IPC: 3.551 cumulative IPC: 3.431 (Simulation time: 00 hr 58 min 59 sec)
Heartbeat CPU 0 instructions: 650000004 cycles: 187414750 heartbeat IPC: 3.552 cumulative IPC: 3.433 (Simulation time: 00 hr 59 min 44 sec)
Simulation finished CPU 0 instructions: 600000004 cycles: 174783475 cumulative IPC: 3.433 (Simulation time: 00 hr 59 min 44 sec)
Simulation complete CPU 0 instructions: 600000004 cycles: 174783475 cumulative IPC: 3.433 (Simulation time: 00 hr 59 min 44 sec)

ChampSim completed all CPUs

=== Simulation ===
CPU 0 runs traces/l1l2cache.champsimtrace
Region of Interest Statistics

CPU 0 cumulative IPC: 3.433 instructions: 600000004 cycles: 174783475
CPU 0 Branch Prediction Accuracy: 97.76% MPKI: 1.901 Average ROB Occupancy at Mispredict: 151.2
Branch type MPKI
BRANCH_DIRECT_JUMP: 9.5e-05
BRANCH_INDIRECT: 0.000282
BRANCH_CONDITIONAL: 1.9
BRANCH_DIRECT_CALL: 3.33e-06
BRANCH_INDIRECT_CALL: 4.83e-05
BRANCH_RETURN: 3.33e-05

LLC TOTAL        ACCESS:     319103 HIT:     165074 MISS:     154029
LLC LOAD         ACCESS:      59447 HIT:      38458 MISS:      20989
LLC RFO          ACCESS:      99911 HIT:      44695 MISS:      55216
LLC PREFETCH     ACCESS:      59447 HIT:      32673 MISS:      26774
LLC WRITE        ACCESS:     100293 HIT:      49247 MISS:      51046
LLC TRANSLATION  ACCESS:          5 HIT:          1 MISS:          4
LLC PREFETCH REQUESTED:      59447 ISSUED:      59447 USEFUL:      26116 USELESS:        191
LLC AVERAGE MISS LATENCY: 282 cycles
cpu0_DTLB TOTAL        ACCESS:   78736649 HIT:   78725670 MISS:      10979
cpu0_DTLB LOAD         ACCESS:   78736649 HIT:   78725670 MISS:      10979
cpu0_DTLB RFO          ACCESS:          0 HIT:          0 MISS:          0
cpu0_DTLB PREFETCH     ACCESS:          0 HIT:          0 MISS:          0
cpu0_DTLB WRITE        ACCESS:          0 HIT:          0 MISS:          0
cpu0_DTLB TRANSLATION  ACCESS:          0 HIT:          0 MISS:          0
cpu0_DTLB PREFETCH REQUESTED:          0 ISSUED:          0 USEFUL:          0 USELESS:          0
cpu0_DTLB AVERAGE MISS LATENCY: 5.734 cycles
cpu0_ITLB TOTAL        ACCESS:       5605 HIT:       5360 MISS:        245
cpu0_ITLB LOAD         ACCESS:       5605 HIT:       5360 MISS:        245
cpu0_ITLB RFO          ACCESS:          0 HIT:          0 MISS:          0
cpu0_ITLB PREFETCH     ACCESS:          0 HIT:          0 MISS:          0
cpu0_ITLB WRITE        ACCESS:          0 HIT:          0 MISS:          0
cpu0_ITLB TRANSLATION  ACCESS:          0 HIT:          0 MISS:          0
cpu0_ITLB PREFETCH REQUESTED:          0 ISSUED:          0 USEFUL:          0 USELESS:          0
cpu0_ITLB AVERAGE MISS LATENCY: 5.604 cycles
cpu0_L1D TOTAL        ACCESS:   97790548 HIT:   95998742 MISS:    1791806
cpu0_L1D LOAD         ACCESS:   38675759 HIT:   38205501 MISS:     470258
cpu0_L1D RFO          ACCESS:          0 HIT:          0 MISS:          0
cpu0_L1D PREFETCH     ACCESS:          0 HIT:          0 MISS:          0
cpu0_L1D WRITE        ACCESS:   59114531 HIT:   57792988 MISS:    1321543
cpu0_L1D TRANSLATION  ACCESS:        258 HIT:        253 MISS:          5
cpu0_L1D PREFETCH REQUESTED:          0 ISSUED:          0 USEFUL:          0 USELESS:          0
cpu0_L1D AVERAGE MISS LATENCY: 20.83 cycles
cpu0_L1I TOTAL        ACCESS:       6392 HIT:       3957 MISS:       2435
cpu0_L1I LOAD         ACCESS:       6392 HIT:       3957 MISS:       2435
cpu0_L1I RFO          ACCESS:          0 HIT:          0 MISS:          0
cpu0_L1I PREFETCH     ACCESS:          0 HIT:          0 MISS:          0
cpu0_L1I WRITE        ACCESS:          0 HIT:          0 MISS:          0
cpu0_L1I TRANSLATION  ACCESS:          0 HIT:          0 MISS:          0
cpu0_L1I PREFETCH REQUESTED:          0 ISSUED:          0 USEFUL:          0 USELESS:          0
cpu0_L1I AVERAGE MISS LATENCY: 85.17 cycles
cpu0_L2C TOTAL        ACCESS:     265746 HIT:     106363 MISS:     159383
cpu0_L2C LOAD         ACCESS:      63739 HIT:       4292 MISS:      59447
cpu0_L2C RFO          ACCESS:     100743 HIT:        832 MISS:      99911
cpu0_L2C PREFETCH     ACCESS:          0 HIT:          0 MISS:          0
cpu0_L2C WRITE        ACCESS:     101259 HIT:     101239 MISS:         20
cpu0_L2C TRANSLATION  ACCESS:          5 HIT:          0 MISS:          5
cpu0_L2C PREFETCH REQUESTED:          0 ISSUED:          0 USEFUL:          0 USELESS:          0
cpu0_L2C AVERAGE MISS LATENCY: 268.8 cycles
cpu0_STLB TOTAL        ACCESS:       3910 HIT:       3653 MISS:        257
cpu0_STLB LOAD         ACCESS:       3910 HIT:       3653 MISS:        257
cpu0_STLB RFO          ACCESS:          0 HIT:          0 MISS:          0
cpu0_STLB PREFETCH     ACCESS:          0 HIT:          0 MISS:          0
cpu0_STLB WRITE        ACCESS:          0 HIT:          0 MISS:          0
cpu0_STLB TRANSLATION  ACCESS:          0 HIT:          0 MISS:          0
cpu0_STLB PREFETCH REQUESTED:          0 ISSUED:          0 USEFUL:          0 USELESS:          0
cpu0_STLB AVERAGE MISS LATENCY: 216.5 cycles

DRAM Statistics

Channel 0 RQ ROW_BUFFER_HIT:      46111
  ROW_BUFFER_MISS:      36164
 AVG DBUS CONGESTED CYCLE: 3.963
WQ ROW_BUFFER_HIT: Channel 0 
  ROW_BUFFER_MISS:      26347
  FULL:      25306
