WARNING: physical memory size is smaller than virtual memory size.

*** ChampSim Multicore Out-of-Order Simulator ***
Warmup Instructions: 50000000
Simulation Instructions: 600000000
Number of CPUs: 1
Page size: 4096

Off-chip DRAM Size: 4 GiB Channels: 1 Width: 64-bit Data Race: 3200 MT/s
Heartbeat CPU 0 instructions: 10000004 cycles: 2777663 heartbeat IPC: 3.6 cumulative IPC: 3.6 (Simulation time: 00 hr 00 min 34 sec)
Heartbeat CPU 0 instructions: 20000001 cycles: 5634805 heartbeat IPC: 3.5 cumulative IPC: 3.549 (Simulation time: 00 hr 01 min 13 sec)
Heartbeat CPU 0 instructions: 30000000 cycles: 8491948 heartbeat IPC: 3.5 cumulative IPC: 3.533 (Simulation time: 00 hr 01 min 55 sec)
Heartbeat CPU 0 instructions: 40000003 cycles: 11120601 heartbeat IPC: 3.804 cumulative IPC: 3.597 (Simulation time: 00 hr 02 min 37 sec)
Heartbeat CPU 0 instructions: 50000003 cycles: 13620601 heartbeat IPC: 4 cumulative IPC: 3.671 (Simulation time: 00 hr 03 min 20 sec)
Warmup finished CPU 0 instructions: 50000003 cycles: 13620602 cumulative IPC: 3.671 (Simulation time: 00 hr 03 min 20 sec)
Warmup complete CPU 0 instructions: 50000003 cycles: 13620602 cumulative IPC: 3.671 (Simulation time: 00 hr 03 min 20 sec)
Heartbeat CPU 0 instructions: 60000002 cycles: 16295256 heartbeat IPC: 3.739 cumulative IPC: 3.739 (Simulation time: 00 hr 04 min 13 sec)
Heartbeat CPU 0 instructions: 70000001 cycles: 18969955 heartbeat IPC: 3.739 cumulative IPC: 3.739 (Simulation time: 00 hr 05 min 11 sec)
Heartbeat CPU 0 instructions: 80000000 cycles: 21644609 heartbeat IPC: 3.739 cumulative IPC: 3.739 (Simulation time: 00 hr 06 min 12 sec)
Heartbeat CPU 0 instructions: 90000003 cycles: 24320181 heartbeat IPC: 3.738 cumulative IPC: 3.738 (Simulation time: 00 hr 07 min 15 sec)
Heartbeat CPU 0 instructions: 100000003 cycles: 26994836 heartbeat IPC: 3.739 cumulative IPC: 3.739 (Simulation time: 00 hr 08 min 16 sec)
Heartbeat CPU 0 instructions: 110000004 cycles: 29669537 heartbeat IPC: 3.739 cumulative IPC: 3.739 (Simulation time: 00 hr 09 min 14 sec)
Heartbeat CPU 0 instructions: 120000003 cycles: 32344220 heartbeat IPC: 3.739 cumulative IPC: 3.739 (Simulation time: 00 hr 10 min 12 sec)
Heartbeat CPU 0 instructions: 130000002 cycles: 35018890 heartbeat IPC: 3.739 cumulative IPC: 3.739 (Simulation time: 00 hr 11 min 09 sec)
Heartbeat CPU 0 instructions: 140000002 cycles: 37694425 heartbeat IPC: 3.738 cumulative IPC: 3.739 (Simulation time: 00 hr 12 min 04 sec)
Heartbeat CPU 0 instructions: 150000000 cycles: 40369080 heartbeat IPC: 3.739 cumulative IPC: 3.739 (Simulation time: 00 hr 12 min 59 sec)
Heartbeat CPU 0 instructions: 160000001 cycles: 43043781 heartbeat IPC: 3.739 cumulative IPC: 3.739 (Simulation time: 00 hr 13 min 54 sec)
Heartbeat CPU 0 instructions: 170000004 cycles: 45718435 heartbeat IPC: 3.739 cumulative IPC: 3.739 (Simulation time: 00 hr 14 min 49 sec)
Heartbeat CPU 0 instructions: 180000000 cycles: 48393515 heartbeat IPC: 3.738 cumulative IPC: 3.739 (Simulation time: 00 hr 15 min 46 sec)
Heartbeat CPU 0 instructions: 190000004 cycles: 51068214 heartbeat IPC: 3.739 cumulative IPC: 3.739 (Simulation time: 00 hr 16 min 41 sec)
Heartbeat CPU 0 instructions: 200000002 cycles: 53742871 heartbeat IPC: 3.739 cumulative IPC: 3.739 (Simulation time: 00 hr 17 min 37 sec)
Heartbeat CPU 0 instructions: 210000003 cycles: 56417572 heartbeat IPC: 3.739 cumulative IPC: 3.739 (Simulation time: 00 hr 18 min 35 sec)
Heartbeat CPU 0 instructions: 220000001 cycles: 59092225 heartbeat IPC: 3.739 cumulative IPC: 3.739 (Simulation time: 00 hr 19 min 33 sec)
Heartbeat CPU 0 instructions: 230000002 cycles: 61767680 heartbeat IPC: 3.738 cumulative IPC: 3.739 (Simulation time: 00 hr 20 min 32 sec)
Heartbeat CPU 0 instructions: 240000003 cycles: 64442334 heartbeat IPC: 3.739 cumulative IPC: 3.739 (Simulation time: 00 hr 21 min 30 sec)
Heartbeat CPU 0 instructions: 250000004 cycles: 67117036 heartbeat IPC: 3.739 cumulative IPC: 3.739 (Simulation time: 00 hr 22 min 30 sec)
Heartbeat CPU 0 instructions: 260000000 cycles: 69791732 heartbeat IPC: 3.739 cumulative IPC: 3.739 (Simulation time: 00 hr 23 min 34 sec)
Heartbeat CPU 0 instructions: 270000003 cycles: 72467257 heartbeat IPC: 3.738 cumulative IPC: 3.739 (Simulation time: 00 hr 24 min 37 sec)
Heartbeat CPU 0 instructions: 280000001 cycles: 75141956 heartbeat IPC: 3.739 cumulative IPC: 3.739 (Simulation time: 00 hr 25 min 38 sec)
Heartbeat CPU 0 instructions: 290000000 cycles: 77816610 heartbeat IPC: 3.739 cumulative IPC: 3.739 (Simulation time: 00 hr 26 min 36 sec)
Heartbeat CPU 0 instructions: 300000001 cycles: 80491312 heartbeat IPC: 3.739 cumulative IPC: 3.739 (Simulation time: 00 hr 27 min 33 sec)
Heartbeat CPU 0 instructions: 310000000 cycles: 83165966 heartbeat IPC: 3.739 cumulative IPC: 3.739 (Simulation time: 00 hr 28 min 34 sec)
Heartbeat CPU 0 instructions: 320000000 cycles: 85841307 heartbeat IPC: 3.738 cumulative IPC: 3.739 (Simulation time: 00 hr 29 min 31 sec)
Heartbeat CPU 0 instructions: 330000002 cycles: 88516005 heartbeat IPC: 3.739 cumulative IPC: 3.739 (Simulation time: 00 hr 30 min 28 sec)
Heartbeat CPU 0 instructions: 340000002 cycles: 91190661 heartbeat IPC: 3.739 cumulative IPC: 3.739 (Simulation time: 00 hr 31 min 24 sec)
Heartbeat CPU 0 instructions: 350000003 cycles: 93865363 heartbeat IPC: 3.739 cumulative IPC: 3.739 (Simulation time: 00 hr 32 min 22 sec)
Heartbeat CPU 0 instructions: 360000001 cycles: 96540827 heartbeat IPC: 3.738 cumulative IPC: 3.739 (Simulation time: 00 hr 33 min 20 sec)
Heartbeat CPU 0 instructions: 370000002 cycles: 99215528 heartbeat IPC: 3.739 cumulative IPC: 3.739 (Simulation time: 00 hr 34 min 20 sec)
Heartbeat CPU 0 instructions: 380000001 cycles: 101890195 heartbeat IPC: 3.739 cumulative IPC: 3.739 (Simulation time: 00 hr 35 min 16 sec)
Heartbeat CPU 0 instructions: 390000004 cycles: 104564882 heartbeat IPC: 3.739 cumulative IPC: 3.739 (Simulation time: 00 hr 36 min 16 sec)
Heartbeat CPU 0 instructions: 400000000 cycles: 107239580 heartbeat IPC: 3.739 cumulative IPC: 3.739 (Simulation time: 00 hr 37 min 16 sec)
Heartbeat CPU 0 instructions: 410000003 cycles: 109914992 heartbeat IPC: 3.738 cumulative IPC: 3.739 (Simulation time: 00 hr 38 min 15 sec)
Heartbeat CPU 0 instructions: 420000003 cycles: 118656839 heartbeat IPC: 1.144 cumulative IPC: 3.523 (Simulation time: 00 hr 40 min 23 sec)
Heartbeat CPU 0 instructions: 430000002 cycles: 146564969 heartbeat IPC: 0.3583 cumulative IPC: 2.858 (Simulation time: 00 hr 46 min 25 sec)
Heartbeat CPU 0 instructions: 440000004 cycles: 174450915 heartbeat IPC: 0.3586 cumulative IPC: 2.425 (Simulation time: 00 hr 52 min 17 sec)
Heartbeat CPU 0 instructions: 450000000 cycles: 202378923 heartbeat IPC: 0.3581 cumulative IPC: 2.119 (Simulation time: 00 hr 58 min 02 sec)
Heartbeat CPU 0 instructions: 460000001 cycles: 230131104 heartbeat IPC: 0.3603 cumulative IPC: 1.894 (Simulation time: 01 hr 04 min 38 sec)
Heartbeat CPU 0 instructions: 470000003 cycles: 257944116 heartbeat IPC: 0.3595 cumulative IPC: 1.719 (Simulation time: 01 hr 15 min 02 sec)
Heartbeat CPU 0 instructions: 480000004 cycles: 285545547 heartbeat IPC: 0.3623 cumulative IPC: 1.581 (Simulation time: 01 hr 25 min 45 sec)
Heartbeat CPU 0 instructions: 490000000 cycles: 313286441 heartbeat IPC: 0.3605 cumulative IPC: 1.468 (Simulation time: 01 hr 34 min 54 sec)
Heartbeat CPU 0 instructions: 500000001 cycles: 341029686 heartbeat IPC: 0.3604 cumulative IPC: 1.374 (Simulation time: 01 hr 46 min 27 sec)
Heartbeat CPU 0 instructions: 510000002 cycles: 368670286 heartbeat IPC: 0.3618 cumulative IPC: 1.296 (Simulation time: 01 hr 57 min 37 sec)
Heartbeat CPU 0 instructions: 520000003 cycles: 396397901 heartbeat IPC: 0.3607 cumulative IPC: 1.228 (Simulation time: 02 hr 07 min 08 sec)
Heartbeat CPU 0 instructions: 530000004 cycles: 423899294 heartbeat IPC: 0.3636 cumulative IPC: 1.17 (Simulation time: 02 hr 18 min 33 sec)
Heartbeat CPU 0 instructions: 540000004 cycles: 451483050 heartbeat IPC: 0.3625 cumulative IPC: 1.119 (Simulation time: 02 hr 26 min 11 sec)
Heartbeat CPU 0 instructions: 550000000 cycles: 479090406 heartbeat IPC: 0.3622 cumulative IPC: 1.074 (Simulation time: 02 hr 32 min 09 sec)
Heartbeat CPU 0 instructions: 560000002 cycles: 506640271 heartbeat IPC: 0.363 cumulative IPC: 1.034 (Simulation time: 02 hr 38 min 06 sec)
Heartbeat CPU 0 instructions: 570000002 cycles: 534293736 heartbeat IPC: 0.3616 cumulative IPC: 0.9987 (Simulation time: 02 hr 44 min 23 sec)
Heartbeat CPU 0 instructions: 580000004 cycles: 561900582 heartbeat IPC: 0.3622 cumulative IPC: 0.9667 (Simulation time: 02 hr 50 min 34 sec)
Heartbeat CPU 0 instructions: 590000000 cycles: 589476550 heartbeat IPC: 0.3626 cumulative IPC: 0.9377 (Simulation time: 02 hr 56 min 36 sec)
*** Reached end of trace: (0, "traces/l1l2l3cache.champsimtrace")
Heartbeat CPU 0 instructions: 600000000 cycles: 617034061 heartbeat IPC: 0.3629 cumulative IPC: 0.9115 (Simulation time: 03 hr 03 min 39 sec)
Heartbeat CPU 0 instructions: 610000002 cycles: 626387432 heartbeat IPC: 1.069 cumulative IPC: 0.9139 (Simulation time: 03 hr 06 min 01 sec)
Heartbeat CPU 0 instructions: 620000002 cycles: 641301309 heartbeat IPC: 0.6705 cumulative IPC: 0.9081 (Simulation time: 03 hr 09 min 27 sec)
Heartbeat CPU 0 instructions: 630000000 cycles: 656198157 heartbeat IPC: 0.6713 cumulative IPC: 0.9026 (Simulation time: 03 hr 12 min 55 sec)
Heartbeat CPU 0 instructions: 640000000 cycles: 663309652 heartbeat IPC: 1.406 cumulative IPC: 0.9081 (Simulation time: 03 hr 14 min 54 sec)
Heartbeat CPU 0 instructions: 650000003 cycles: 665984337 heartbeat IPC: 3.739 cumulative IPC: 0.9197 (Simulation time: 03 hr 15 min 53 sec)
Simulation finished CPU 0 instructions: 600000000 cycles: 652363736 cumulative IPC: 0.9197 (Simulation time: 03 hr 15 min 53 sec)
Simulation complete CPU 0 instructions: 600000000 cycles: 652363736 cumulative IPC: 0.9197 (Simulation time: 03 hr 15 min 53 sec)

ChampSim completed all CPUs

=== Simulation ===
CPU 0 runs traces/l1l2l3cache.champsimtrace
Region of Interest Statistics

CPU 0 cumulative IPC: 0.9197 instructions: 600000000 cycles: 652363736
CPU 0 Branch Prediction Accuracy: 99.5% MPKI: 1.069 Average ROB Occupancy at Mispredict: 150
Branch type MPKI
BRANCH_DIRECT_JUMP: 8.5e-05
BRANCH_INDIRECT: 0.000237
BRANCH_CONDITIONAL: 1.07
BRANCH_DIRECT_CALL: 5e-06
BRANCH_INDIRECT_CALL: 4.67e-05
BRANCH_RETURN: 3.67e-05

LLC TOTAL        ACCESS:    5043919 HIT:     431335 MISS:    4612584
LLC LOAD         ACCESS:    1954447 HIT:     171905 MISS:    1782542
LLC RFO          ACCESS:     561710 HIT:      43415 MISS:     518295
LLC PREFETCH     ACCESS:    1954447 HIT:     171623 MISS:    1782824
LLC WRITE        ACCESS:     562069 HIT:      44206 MISS:     517863
LLC TRANSLATION  ACCESS:      11246 HIT:        186 MISS:      11060
LLC PREFETCH REQUESTED:    1954447 ISSUED:    1954447 USEFUL:       7933 USELESS:    1775163
LLC AVERAGE MISS LATENCY: 902.1 cycles
cpu0_DTLB TOTAL        ACCESS:  130498426 HIT:  128483576 MISS:    2014850
cpu0_DTLB LOAD         ACCESS:  130498426 HIT:  128483576 MISS:    2014850
cpu0_DTLB RFO          ACCESS:          0 HIT:          0 MISS:          0
cpu0_DTLB PREFETCH     ACCESS:          0 HIT:          0 MISS:          0
cpu0_DTLB WRITE        ACCESS:          0 HIT:          0 MISS:          0
cpu0_DTLB TRANSLATION  ACCESS:          0 HIT:          0 MISS:          0
cpu0_DTLB PREFETCH REQUESTED:          0 ISSUED:          0 USEFUL:          0 USELESS:          0
cpu0_DTLB AVERAGE MISS LATENCY: 21.99 cycles
cpu0_ITLB TOTAL        ACCESS:       4985 HIT:       4751 MISS:        234
cpu0_ITLB LOAD         ACCESS:       4985 HIT:       4751 MISS:        234
cpu0_ITLB RFO          ACCESS:          0 HIT:          0 MISS:          0
cpu0_ITLB PREFETCH     ACCESS:          0 HIT:          0 MISS:          0
cpu0_ITLB WRITE        ACCESS:          0 HIT:          0 MISS:          0
cpu0_ITLB TRANSLATION  ACCESS:          0 HIT:          0 MISS:          0
cpu0_ITLB PREFETCH REQUESTED:          0 ISSUED:          0 USEFUL:          0 USELESS:          0
cpu0_ITLB AVERAGE MISS LATENCY: 252.1 cycles
cpu0_L1D TOTAL        ACCESS:  178188602 HIT:  166893607 MISS:   11294995
cpu0_L1D LOAD         ACCESS:   69906836 HIT:   67866814 MISS:    2040022
cpu0_L1D RFO          ACCESS:          0 HIT:          0 MISS:          0
cpu0_L1D PREFETCH     ACCESS:          0 HIT:          0 MISS:          0
cpu0_L1D WRITE        ACCESS:  106976273 HIT:   98467555 MISS:    8508718
cpu0_L1D TRANSLATION  ACCESS:    1305493 HIT:     559238 MISS:     746255
cpu0_L1D PREFETCH REQUESTED:          0 ISSUED:          0 USEFUL:          0 USELESS:          0
cpu0_L1D AVERAGE MISS LATENCY: 193.8 cycles
cpu0_L1I TOTAL        ACCESS:       5694 HIT:       3317 MISS:       2377
cpu0_L1I LOAD         ACCESS:       5694 HIT:       3317 MISS:       2377
cpu0_L1I RFO          ACCESS:          0 HIT:          0 MISS:          0
cpu0_L1I PREFETCH     ACCESS:          0 HIT:          0 MISS:          0
cpu0_L1I WRITE        ACCESS:          0 HIT:          0 MISS:          0
cpu0_L1I TRANSLATION  ACCESS:          0 HIT:          0 MISS:          0
cpu0_L1I PREFETCH REQUESTED:          0 ISSUED:          0 USEFUL:          0 USELESS:          0
cpu0_L1I AVERAGE MISS LATENCY: 178.9 cycles
cpu0_L2C TOTAL        ACCESS:    3903908 HIT:    1376486 MISS:    2527422
cpu0_L2C LOAD         ACCESS:    2009351 HIT:      54904 MISS:    1954447
cpu0_L2C RFO          ACCESS:     573641 HIT:      11931 MISS:     561710
cpu0_L2C PREFETCH     ACCESS:          0 HIT:          0 MISS:          0
cpu0_L2C WRITE        ACCESS:     574683 HIT:     574664 MISS:         19
cpu0_L2C TRANSLATION  ACCESS:     746233 HIT:     734987 MISS:      11246
cpu0_L2C PREFETCH REQUESTED:          0 ISSUED:          0 USEFUL:          0 USELESS:          0
cpu0_L2C AVERAGE MISS LATENCY: 888.3 cycles
cpu0_STLB TOTAL        ACCESS:    1982651 HIT:     677166 MISS:    1305485
cpu0_STLB LOAD         ACCESS:    1982651 HIT:     677166 MISS:    1305485
cpu0_STLB RFO          ACCESS:          0 HIT:          0 MISS:          0
cpu0_STLB PREFETCH     ACCESS:          0 HIT:          0 MISS:          0
cpu0_STLB WRITE        ACCESS:          0 HIT:          0 MISS:          0
cpu0_STLB TRANSLATION  ACCESS:          0 HIT:          0 MISS:          0
cpu0_STLB PREFETCH REQUESTED:          0 ISSUED:          0 USEFUL:          0 USELESS:          0
cpu0_STLB AVERAGE MISS LATENCY: 20.89 cycles

DRAM Statistics

Channel 0 RQ ROW_BUFFER_HIT:     101829
  ROW_BUFFER_MISS:    3991954
 AVG DBUS CONGESTED CYCLE: 3.971
WQ ROW_BUFFER_HIT: Channel 0 
  ROW_BUFFER_MISS:     169037
  FULL:     350092
