WARNING: physical memory size is smaller than virtual memory size.

*** ChampSim Multicore Out-of-Order Simulator ***
Warmup Instructions: 50000000
Simulation Instructions: 600000000
Number of CPUs: 1
Page size: 4096

Off-chip DRAM Size: 4 GiB Channels: 1 Width: 64-bit Data Race: 3200 MT/s
Heartbeat CPU 0 instructions: 10000004 cycles: 2777663 heartbeat IPC: 3.6 cumulative IPC: 3.6 (Simulation time: 00 hr 00 min 44 sec)
Heartbeat CPU 0 instructions: 20000001 cycles: 5634805 heartbeat IPC: 3.5 cumulative IPC: 3.549 (Simulation time: 00 hr 01 min 30 sec)
Heartbeat CPU 0 instructions: 30000000 cycles: 8491948 heartbeat IPC: 3.5 cumulative IPC: 3.533 (Simulation time: 00 hr 02 min 19 sec)
Heartbeat CPU 0 instructions: 40000003 cycles: 11120601 heartbeat IPC: 3.804 cumulative IPC: 3.597 (Simulation time: 00 hr 03 min 12 sec)
Heartbeat CPU 0 instructions: 50000003 cycles: 13620601 heartbeat IPC: 4 cumulative IPC: 3.671 (Simulation time: 00 hr 04 min 07 sec)
Warmup finished CPU 0 instructions: 50000003 cycles: 13620602 cumulative IPC: 3.671 (Simulation time: 00 hr 04 min 07 sec)
Warmup complete CPU 0 instructions: 50000003 cycles: 13620602 cumulative IPC: 3.671 (Simulation time: 00 hr 04 min 07 sec)
Heartbeat CPU 0 instructions: 60000002 cycles: 16295256 heartbeat IPC: 3.739 cumulative IPC: 3.739 (Simulation time: 00 hr 05 min 09 sec)
Heartbeat CPU 0 instructions: 70000001 cycles: 18969955 heartbeat IPC: 3.739 cumulative IPC: 3.739 (Simulation time: 00 hr 06 min 11 sec)
Heartbeat CPU 0 instructions: 80000000 cycles: 21644609 heartbeat IPC: 3.739 cumulative IPC: 3.739 (Simulation time: 00 hr 07 min 12 sec)
Heartbeat CPU 0 instructions: 90000003 cycles: 24320181 heartbeat IPC: 3.738 cumulative IPC: 3.738 (Simulation time: 00 hr 08 min 12 sec)
Heartbeat CPU 0 instructions: 100000003 cycles: 26994836 heartbeat IPC: 3.739 cumulative IPC: 3.739 (Simulation time: 00 hr 09 min 11 sec)
Heartbeat CPU 0 instructions: 110000004 cycles: 29669537 heartbeat IPC: 3.739 cumulative IPC: 3.739 (Simulation time: 00 hr 10 min 08 sec)
Heartbeat CPU 0 instructions: 120000003 cycles: 32344220 heartbeat IPC: 3.739 cumulative IPC: 3.739 (Simulation time: 00 hr 11 min 02 sec)
Heartbeat CPU 0 instructions: 130000002 cycles: 35018890 heartbeat IPC: 3.739 cumulative IPC: 3.739 (Simulation time: 00 hr 11 min 58 sec)
Heartbeat CPU 0 instructions: 140000002 cycles: 37694425 heartbeat IPC: 3.738 cumulative IPC: 3.739 (Simulation time: 00 hr 12 min 55 sec)
Heartbeat CPU 0 instructions: 150000000 cycles: 40369080 heartbeat IPC: 3.739 cumulative IPC: 3.739 (Simulation time: 00 hr 13 min 52 sec)
Heartbeat CPU 0 instructions: 160000001 cycles: 43043781 heartbeat IPC: 3.739 cumulative IPC: 3.739 (Simulation time: 00 hr 14 min 47 sec)
Heartbeat CPU 0 instructions: 170000004 cycles: 45718435 heartbeat IPC: 3.739 cumulative IPC: 3.739 (Simulation time: 00 hr 15 min 42 sec)
Heartbeat CPU 0 instructions: 180000000 cycles: 48393515 heartbeat IPC: 3.738 cumulative IPC: 3.739 (Simulation time: 00 hr 16 min 40 sec)
Heartbeat CPU 0 instructions: 190000004 cycles: 51068214 heartbeat IPC: 3.739 cumulative IPC: 3.739 (Simulation time: 00 hr 17 min 38 sec)
Heartbeat CPU 0 instructions: 200000002 cycles: 53742871 heartbeat IPC: 3.739 cumulative IPC: 3.739 (Simulation time: 00 hr 18 min 38 sec)
Heartbeat CPU 0 instructions: 210000003 cycles: 56417572 heartbeat IPC: 3.739 cumulative IPC: 3.739 (Simulation time: 00 hr 19 min 36 sec)
Heartbeat CPU 0 instructions: 220000001 cycles: 59092225 heartbeat IPC: 3.739 cumulative IPC: 3.739 (Simulation time: 00 hr 20 min 37 sec)
Heartbeat CPU 0 instructions: 230000002 cycles: 61768037 heartbeat IPC: 3.737 cumulative IPC: 3.739 (Simulation time: 00 hr 21 min 39 sec)
Heartbeat CPU 0 instructions: 240000003 cycles: 64442691 heartbeat IPC: 3.739 cumulative IPC: 3.739 (Simulation time: 00 hr 22 min 44 sec)
Heartbeat CPU 0 instructions: 250000004 cycles: 67117393 heartbeat IPC: 3.739 cumulative IPC: 3.739 (Simulation time: 00 hr 23 min 44 sec)
Heartbeat CPU 0 instructions: 260000000 cycles: 69792089 heartbeat IPC: 3.739 cumulative IPC: 3.739 (Simulation time: 00 hr 24 min 43 sec)
Heartbeat CPU 0 instructions: 270000003 cycles: 72467836 heartbeat IPC: 3.737 cumulative IPC: 3.738 (Simulation time: 00 hr 25 min 41 sec)
Heartbeat CPU 0 instructions: 280000001 cycles: 75142535 heartbeat IPC: 3.739 cumulative IPC: 3.739 (Simulation time: 00 hr 26 min 42 sec)
Heartbeat CPU 0 instructions: 290000000 cycles: 77817189 heartbeat IPC: 3.739 cumulative IPC: 3.739 (Simulation time: 00 hr 27 min 38 sec)
Heartbeat CPU 0 instructions: 300000001 cycles: 80491891 heartbeat IPC: 3.739 cumulative IPC: 3.739 (Simulation time: 00 hr 28 min 35 sec)
Heartbeat CPU 0 instructions: 310000000 cycles: 83166545 heartbeat IPC: 3.739 cumulative IPC: 3.739 (Simulation time: 00 hr 29 min 31 sec)
Heartbeat CPU 0 instructions: 320000000 cycles: 85841793 heartbeat IPC: 3.738 cumulative IPC: 3.739 (Simulation time: 00 hr 30 min 29 sec)
Heartbeat CPU 0 instructions: 330000002 cycles: 88516491 heartbeat IPC: 3.739 cumulative IPC: 3.739 (Simulation time: 00 hr 31 min 26 sec)
Heartbeat CPU 0 instructions: 340000002 cycles: 91191147 heartbeat IPC: 3.739 cumulative IPC: 3.739 (Simulation time: 00 hr 32 min 24 sec)
Heartbeat CPU 0 instructions: 350000003 cycles: 93865849 heartbeat IPC: 3.739 cumulative IPC: 3.739 (Simulation time: 00 hr 33 min 22 sec)
Heartbeat CPU 0 instructions: 360000001 cycles: 96541378 heartbeat IPC: 3.738 cumulative IPC: 3.739 (Simulation time: 00 hr 34 min 21 sec)
Heartbeat CPU 0 instructions: 370000002 cycles: 99216079 heartbeat IPC: 3.739 cumulative IPC: 3.739 (Simulation time: 00 hr 35 min 24 sec)
Heartbeat CPU 0 instructions: 380000001 cycles: 101890746 heartbeat IPC: 3.739 cumulative IPC: 3.739 (Simulation time: 00 hr 36 min 24 sec)
Heartbeat CPU 0 instructions: 390000004 cycles: 104565433 heartbeat IPC: 3.739 cumulative IPC: 3.739 (Simulation time: 00 hr 37 min 23 sec)
Heartbeat CPU 0 instructions: 400000000 cycles: 107240131 heartbeat IPC: 3.739 cumulative IPC: 3.739 (Simulation time: 00 hr 38 min 22 sec)
Heartbeat CPU 0 instructions: 410000003 cycles: 109915997 heartbeat IPC: 3.737 cumulative IPC: 3.738 (Simulation time: 00 hr 39 min 25 sec)
Heartbeat CPU 0 instructions: 420000003 cycles: 117434670 heartbeat IPC: 1.33 cumulative IPC: 3.564 (Simulation time: 00 hr 41 min 19 sec)
Heartbeat CPU 0 instructions: 430000002 cycles: 136486128 heartbeat IPC: 0.5249 cumulative IPC: 3.093 (Simulation time: 00 hr 45 min 29 sec)
Heartbeat CPU 0 instructions: 440000004 cycles: 155521575 heartbeat IPC: 0.5253 cumulative IPC: 2.748 (Simulation time: 00 hr 49 min 41 sec)
Heartbeat CPU 0 instructions: 450000000 cycles: 174575888 heartbeat IPC: 0.5248 cumulative IPC: 2.485 (Simulation time: 00 hr 53 min 44 sec)
Heartbeat CPU 0 instructions: 460000002 cycles: 193540433 heartbeat IPC: 0.5273 cumulative IPC: 2.279 (Simulation time: 00 hr 57 min 50 sec)
Heartbeat CPU 0 instructions: 470000003 cycles: 212573745 heartbeat IPC: 0.5254 cumulative IPC: 2.111 (Simulation time: 01 hr 02 min 26 sec)
Heartbeat CPU 0 instructions: 480000003 cycles: 231570715 heartbeat IPC: 0.5264 cumulative IPC: 1.973 (Simulation time: 01 hr 09 min 49 sec)
Heartbeat CPU 0 instructions: 490000004 cycles: 250571500 heartbeat IPC: 0.5263 cumulative IPC: 1.857 (Simulation time: 01 hr 17 min 08 sec)
Heartbeat CPU 0 instructions: 500000003 cycles: 269598587 heartbeat IPC: 0.5256 cumulative IPC: 1.758 (Simulation time: 01 hr 25 min 00 sec)
Heartbeat CPU 0 instructions: 510000002 cycles: 288602880 heartbeat IPC: 0.5262 cumulative IPC: 1.673 (Simulation time: 01 hr 30 min 15 sec)
Heartbeat CPU 0 instructions: 520000003 cycles: 307625754 heartbeat IPC: 0.5257 cumulative IPC: 1.599 (Simulation time: 01 hr 39 min 25 sec)
Heartbeat CPU 0 instructions: 530000004 cycles: 326580874 heartbeat IPC: 0.5276 cumulative IPC: 1.534 (Simulation time: 01 hr 47 min 51 sec)
Heartbeat CPU 0 instructions: 540000004 cycles: 345547695 heartbeat IPC: 0.5272 cumulative IPC: 1.476 (Simulation time: 01 hr 55 min 59 sec)
Heartbeat CPU 0 instructions: 550000000 cycles: 364592371 heartbeat IPC: 0.5251 cumulative IPC: 1.425 (Simulation time: 02 hr 04 min 03 sec)
Heartbeat CPU 0 instructions: 560000002 cycles: 383603170 heartbeat IPC: 0.526 cumulative IPC: 1.378 (Simulation time: 02 hr 10 min 47 sec)
Heartbeat CPU 0 instructions: 570000002 cycles: 402624787 heartbeat IPC: 0.5257 cumulative IPC: 1.337 (Simulation time: 02 hr 19 min 24 sec)
Heartbeat CPU 0 instructions: 580000004 cycles: 421660187 heartbeat IPC: 0.5253 cumulative IPC: 1.299 (Simulation time: 02 hr 24 min 13 sec)
Heartbeat CPU 0 instructions: 590000000 cycles: 440690541 heartbeat IPC: 0.5255 cumulative IPC: 1.264 (Simulation time: 02 hr 28 min 26 sec)
*** Reached end of trace: (0, "traces/l1l2l3cache.champsimtrace")
Heartbeat CPU 0 instructions: 600000000 cycles: 459708630 heartbeat IPC: 0.5258 cumulative IPC: 1.233 (Simulation time: 02 hr 32 min 43 sec)
Heartbeat CPU 0 instructions: 610000000 cycles: 468564877 heartbeat IPC: 1.129 cumulative IPC: 1.231 (Simulation time: 02 hr 34 min 52 sec)
Heartbeat CPU 0 instructions: 620000001 cycles: 483996976 heartbeat IPC: 0.648 cumulative IPC: 1.212 (Simulation time: 02 hr 38 min 27 sec)
Heartbeat CPU 0 instructions: 630000002 cycles: 499441160 heartbeat IPC: 0.6475 cumulative IPC: 1.194 (Simulation time: 02 hr 42 min 04 sec)
Heartbeat CPU 0 instructions: 640000000 cycles: 506714435 heartbeat IPC: 1.375 cumulative IPC: 1.197 (Simulation time: 02 hr 44 min 03 sec)
Heartbeat CPU 0 instructions: 650000003 cycles: 509389120 heartbeat IPC: 3.739 cumulative IPC: 1.21 (Simulation time: 02 hr 45 min 03 sec)
Simulation finished CPU 0 instructions: 600000000 cycles: 495768519 cumulative IPC: 1.21 (Simulation time: 02 hr 45 min 03 sec)
Simulation complete CPU 0 instructions: 600000000 cycles: 495768519 cumulative IPC: 1.21 (Simulation time: 02 hr 45 min 03 sec)

ChampSim completed all CPUs

=== Simulation ===
CPU 0 runs traces/l1l2l3cache.champsimtrace
Region of Interest Statistics

CPU 0 cumulative IPC: 1.21 instructions: 600000000 cycles: 495768519
CPU 0 Branch Prediction Accuracy: 99.5% MPKI: 1.069 Average ROB Occupancy at Mispredict: 148.9
Branch type MPKI
BRANCH_DIRECT_JUMP: 8.5e-05
BRANCH_INDIRECT: 0.000237
BRANCH_CONDITIONAL: 1.07
BRANCH_DIRECT_CALL: 5e-06
BRANCH_INDIRECT_CALL: 4.67e-05
BRANCH_RETURN: 3.67e-05

LLC TOTAL        ACCESS:    3089471 HIT:     244804 MISS:    2844667
LLC LOAD         ACCESS:    1954448 HIT:     156472 MISS:    1797976
LLC RFO          ACCESS:     561710 HIT:      43510 MISS:     518200
LLC PREFETCH     ACCESS:          0 HIT:          0 MISS:          0
LLC WRITE        ACCESS:     562067 HIT:      44293 MISS:     517774
LLC TRANSLATION  ACCESS:      11246 HIT:        529 MISS:      10717
LLC PREFETCH REQUESTED:          0 ISSUED:          0 USEFUL:          0 USELESS:          0
LLC AVERAGE MISS LATENCY: 572.2 cycles
cpu0_DTLB TOTAL        ACCESS:  130595491 HIT:  128580613 MISS:    2014878
cpu0_DTLB LOAD         ACCESS:  130595491 HIT:  128580613 MISS:    2014878
cpu0_DTLB RFO          ACCESS:          0 HIT:          0 MISS:          0
cpu0_DTLB PREFETCH     ACCESS:          0 HIT:          0 MISS:          0
cpu0_DTLB WRITE        ACCESS:          0 HIT:          0 MISS:          0
cpu0_DTLB TRANSLATION  ACCESS:          0 HIT:          0 MISS:          0
cpu0_DTLB PREFETCH REQUESTED:          0 ISSUED:          0 USEFUL:          0 USELESS:          0
cpu0_DTLB AVERAGE MISS LATENCY: 20.23 cycles
cpu0_ITLB TOTAL        ACCESS:       4981 HIT:       4752 MISS:        229
cpu0_ITLB LOAD         ACCESS:       4981 HIT:       4752 MISS:        229
cpu0_ITLB RFO          ACCESS:          0 HIT:          0 MISS:          0
cpu0_ITLB PREFETCH     ACCESS:          0 HIT:          0 MISS:          0
cpu0_ITLB WRITE        ACCESS:          0 HIT:          0 MISS:          0
cpu0_ITLB TRANSLATION  ACCESS:          0 HIT:          0 MISS:          0
cpu0_ITLB PREFETCH REQUESTED:          0 ISSUED:          0 USEFUL:          0 USELESS:          0
cpu0_ITLB AVERAGE MISS LATENCY: 76.58 cycles
cpu0_L1D TOTAL        ACCESS:  178130907 HIT:  166861306 MISS:   11269601
cpu0_L1D LOAD         ACCESS:   69808218 HIT:   67768684 MISS:    2039534
cpu0_L1D RFO          ACCESS:          0 HIT:          0 MISS:          0
cpu0_L1D PREFETCH     ACCESS:          0 HIT:          0 MISS:          0
cpu0_L1D WRITE        ACCESS:  107017196 HIT:   98533353 MISS:    8483843
cpu0_L1D TRANSLATION  ACCESS:    1305493 HIT:     559269 MISS:     746224
cpu0_L1D PREFETCH REQUESTED:          0 ISSUED:          0 USEFUL:          0 USELESS:          0
cpu0_L1D AVERAGE MISS LATENCY: 144.2 cycles
cpu0_L1I TOTAL        ACCESS:       5685 HIT:       3287 MISS:       2398
cpu0_L1I LOAD         ACCESS:       5685 HIT:       3287 MISS:       2398
cpu0_L1I RFO          ACCESS:          0 HIT:          0 MISS:          0
cpu0_L1I PREFETCH     ACCESS:          0 HIT:          0 MISS:          0
cpu0_L1I WRITE        ACCESS:          0 HIT:          0 MISS:          0
cpu0_L1I TRANSLATION  ACCESS:          0 HIT:          0 MISS:          0
cpu0_L1I PREFETCH REQUESTED:          0 ISSUED:          0 USEFUL:          0 USELESS:          0
cpu0_L1I AVERAGE MISS LATENCY: 135.5 cycles
cpu0_L2C TOTAL        ACCESS:    3903761 HIT:    1376339 MISS:    2527422
cpu0_L2C LOAD         ACCESS:    2009350 HIT:      54902 MISS:    1954448
cpu0_L2C RFO          ACCESS:     573526 HIT:      11816 MISS:     561710
cpu0_L2C PREFETCH     ACCESS:          0 HIT:          0 MISS:          0
cpu0_L2C WRITE        ACCESS:     574683 HIT:     574665 MISS:         18
cpu0_L2C TRANSLATION  ACCESS:     746202 HIT:     734956 MISS:      11246
cpu0_L2C PREFETCH REQUESTED:          0 ISSUED:          0 USEFUL:          0 USELESS:          0
cpu0_L2C AVERAGE MISS LATENCY: 664.9 cycles
cpu0_STLB TOTAL        ACCESS:    1982639 HIT:     677154 MISS:    1305485
cpu0_STLB LOAD         ACCESS:    1982639 HIT:     677154 MISS:    1305485
cpu0_STLB RFO          ACCESS:          0 HIT:          0 MISS:          0
cpu0_STLB PREFETCH     ACCESS:          0 HIT:          0 MISS:          0
cpu0_STLB WRITE        ACCESS:          0 HIT:          0 MISS:          0
cpu0_STLB TRANSLATION  ACCESS:          0 HIT:          0 MISS:          0
cpu0_STLB PREFETCH REQUESTED:          0 ISSUED:          0 USEFUL:          0 USELESS:          0
cpu0_STLB AVERAGE MISS LATENCY: 18.14 cycles

DRAM Statistics

Channel 0 RQ ROW_BUFFER_HIT:      87561
  ROW_BUFFER_MISS:    2239075
 AVG DBUS CONGESTED CYCLE: 3.944
WQ ROW_BUFFER_HIT: Channel 0 
  ROW_BUFFER_MISS:     176172
  FULL:     342050
