WARNING: physical memory size is smaller than virtual memory size.

*** ChampSim Multicore Out-of-Order Simulator ***
Warmup Instructions: 50000000
Simulation Instructions: 600000000
Number of CPUs: 1
Page size: 4096

Off-chip DRAM Size: 4 GiB Channels: 1 Width: 64-bit Data Race: 3200 MT/s
Heartbeat CPU 0 instructions: 10000000 cycles: 2565785 heartbeat IPC: 3.897 cumulative IPC: 3.897 (Simulation time: 00 hr 01 min 00 sec)
Heartbeat CPU 0 instructions: 20000000 cycles: 5131274 heartbeat IPC: 3.898 cumulative IPC: 3.898 (Simulation time: 00 hr 01 min 55 sec)
Heartbeat CPU 0 instructions: 30000000 cycles: 7631274 heartbeat IPC: 4 cumulative IPC: 3.931 (Simulation time: 00 hr 02 min 46 sec)
Heartbeat CPU 0 instructions: 40000000 cycles: 10131274 heartbeat IPC: 4 cumulative IPC: 3.948 (Simulation time: 00 hr 03 min 36 sec)
Heartbeat CPU 0 instructions: 50000000 cycles: 12631274 heartbeat IPC: 4 cumulative IPC: 3.958 (Simulation time: 00 hr 04 min 26 sec)
Warmup finished CPU 0 instructions: 50000000 cycles: 12631275 cumulative IPC: 3.958 (Simulation time: 00 hr 04 min 26 sec)
Warmup complete CPU 0 instructions: 50000000 cycles: 12631275 cumulative IPC: 3.958 (Simulation time: 00 hr 04 min 26 sec)
Heartbeat CPU 0 instructions: 60000000 cycles: 16058852 heartbeat IPC: 2.918 cumulative IPC: 2.918 (Simulation time: 00 hr 05 min 31 sec)
Heartbeat CPU 0 instructions: 70000000 cycles: 19488286 heartbeat IPC: 2.916 cumulative IPC: 2.917 (Simulation time: 00 hr 06 min 36 sec)
Heartbeat CPU 0 instructions: 80000004 cycles: 22914704 heartbeat IPC: 2.919 cumulative IPC: 2.917 (Simulation time: 00 hr 07 min 41 sec)
Heartbeat CPU 0 instructions: 90000000 cycles: 26342392 heartbeat IPC: 2.917 cumulative IPC: 2.917 (Simulation time: 00 hr 08 min 45 sec)
Heartbeat CPU 0 instructions: 100000003 cycles: 29773619 heartbeat IPC: 2.914 cumulative IPC: 2.917 (Simulation time: 00 hr 09 min 50 sec)
Heartbeat CPU 0 instructions: 110000000 cycles: 33199684 heartbeat IPC: 2.919 cumulative IPC: 2.917 (Simulation time: 00 hr 10 min 55 sec)
Heartbeat CPU 0 instructions: 120000001 cycles: 36624207 heartbeat IPC: 2.92 cumulative IPC: 2.918 (Simulation time: 00 hr 12 min 00 sec)
Heartbeat CPU 0 instructions: 130000001 cycles: 40050788 heartbeat IPC: 2.918 cumulative IPC: 2.918 (Simulation time: 00 hr 13 min 04 sec)
Heartbeat CPU 0 instructions: 140000002 cycles: 43477136 heartbeat IPC: 2.919 cumulative IPC: 2.918 (Simulation time: 00 hr 14 min 09 sec)
Heartbeat CPU 0 instructions: 150000000 cycles: 46902215 heartbeat IPC: 2.92 cumulative IPC: 2.918 (Simulation time: 00 hr 15 min 13 sec)
Heartbeat CPU 0 instructions: 160000002 cycles: 50328722 heartbeat IPC: 2.918 cumulative IPC: 2.918 (Simulation time: 00 hr 16 min 13 sec)
Heartbeat CPU 0 instructions: 170000000 cycles: 53756209 heartbeat IPC: 2.918 cumulative IPC: 2.918 (Simulation time: 00 hr 17 min 03 sec)
Heartbeat CPU 0 instructions: 180000004 cycles: 57182235 heartbeat IPC: 2.919 cumulative IPC: 2.918 (Simulation time: 00 hr 17 min 50 sec)
Heartbeat CPU 0 instructions: 190000001 cycles: 60608942 heartbeat IPC: 2.918 cumulative IPC: 2.918 (Simulation time: 00 hr 18 min 32 sec)
Heartbeat CPU 0 instructions: 200000001 cycles: 64034698 heartbeat IPC: 2.919 cumulative IPC: 2.918 (Simulation time: 00 hr 19 min 13 sec)
Heartbeat CPU 0 instructions: 210000004 cycles: 67460593 heartbeat IPC: 2.919 cumulative IPC: 2.918 (Simulation time: 00 hr 19 min 53 sec)
Heartbeat CPU 0 instructions: 220000002 cycles: 70888099 heartbeat IPC: 2.918 cumulative IPC: 2.918 (Simulation time: 00 hr 20 min 32 sec)
Heartbeat CPU 0 instructions: 230000001 cycles: 74190576 heartbeat IPC: 3.028 cumulative IPC: 2.924 (Simulation time: 00 hr 21 min 14 sec)
Heartbeat CPU 0 instructions: 240000003 cycles: 76927482 heartbeat IPC: 3.654 cumulative IPC: 2.955 (Simulation time: 00 hr 21 min 53 sec)
Heartbeat CPU 0 instructions: 250000003 cycles: 80361157 heartbeat IPC: 2.912 cumulative IPC: 2.953 (Simulation time: 00 hr 22 min 31 sec)
Heartbeat CPU 0 instructions: 260000000 cycles: 83787895 heartbeat IPC: 2.918 cumulative IPC: 2.951 (Simulation time: 00 hr 23 min 08 sec)
Heartbeat CPU 0 instructions: 270000004 cycles: 87213890 heartbeat IPC: 2.919 cumulative IPC: 2.95 (Simulation time: 00 hr 23 min 46 sec)
Heartbeat CPU 0 instructions: 280000000 cycles: 90641717 heartbeat IPC: 2.917 cumulative IPC: 2.948 (Simulation time: 00 hr 24 min 24 sec)
Heartbeat CPU 0 instructions: 290000002 cycles: 94069852 heartbeat IPC: 2.917 cumulative IPC: 2.947 (Simulation time: 00 hr 25 min 02 sec)
Heartbeat CPU 0 instructions: 300000004 cycles: 97493418 heartbeat IPC: 2.921 cumulative IPC: 2.946 (Simulation time: 00 hr 25 min 40 sec)
Heartbeat CPU 0 instructions: 310000002 cycles: 100921541 heartbeat IPC: 2.917 cumulative IPC: 2.945 (Simulation time: 00 hr 26 min 17 sec)
Heartbeat CPU 0 instructions: 320000000 cycles: 104349351 heartbeat IPC: 2.917 cumulative IPC: 2.944 (Simulation time: 00 hr 26 min 54 sec)
Heartbeat CPU 0 instructions: 330000004 cycles: 107776100 heartbeat IPC: 2.918 cumulative IPC: 2.943 (Simulation time: 00 hr 27 min 28 sec)
Heartbeat CPU 0 instructions: 340000000 cycles: 111203357 heartbeat IPC: 2.918 cumulative IPC: 2.942 (Simulation time: 00 hr 28 min 02 sec)
Heartbeat CPU 0 instructions: 350000003 cycles: 114632278 heartbeat IPC: 2.916 cumulative IPC: 2.941 (Simulation time: 00 hr 28 min 35 sec)
Heartbeat CPU 0 instructions: 360000003 cycles: 118059926 heartbeat IPC: 2.917 cumulative IPC: 2.94 (Simulation time: 00 hr 29 min 11 sec)
Heartbeat CPU 0 instructions: 370000004 cycles: 121486318 heartbeat IPC: 2.919 cumulative IPC: 2.94 (Simulation time: 00 hr 29 min 46 sec)
Heartbeat CPU 0 instructions: 380000003 cycles: 124911852 heartbeat IPC: 2.919 cumulative IPC: 2.939 (Simulation time: 00 hr 30 min 21 sec)
Heartbeat CPU 0 instructions: 390000000 cycles: 128332831 heartbeat IPC: 2.923 cumulative IPC: 2.939 (Simulation time: 00 hr 30 min 59 sec)
Heartbeat CPU 0 instructions: 400000002 cycles: 131760211 heartbeat IPC: 2.918 cumulative IPC: 2.938 (Simulation time: 00 hr 31 min 38 sec)
Heartbeat CPU 0 instructions: 410000003 cycles: 135187707 heartbeat IPC: 2.918 cumulative IPC: 2.937 (Simulation time: 00 hr 32 min 18 sec)
Heartbeat CPU 0 instructions: 420000001 cycles: 138615535 heartbeat IPC: 2.917 cumulative IPC: 2.937 (Simulation time: 00 hr 32 min 58 sec)
Heartbeat CPU 0 instructions: 430000001 cycles: 142044285 heartbeat IPC: 2.917 cumulative IPC: 2.936 (Simulation time: 00 hr 33 min 41 sec)
Heartbeat CPU 0 instructions: 440000002 cycles: 145468845 heartbeat IPC: 2.92 cumulative IPC: 2.936 (Simulation time: 00 hr 34 min 31 sec)
Heartbeat CPU 0 instructions: 450000001 cycles: 148240075 heartbeat IPC: 3.609 cumulative IPC: 2.95 (Simulation time: 00 hr 35 min 21 sec)
Heartbeat CPU 0 instructions: 460000002 cycles: 150973393 heartbeat IPC: 3.659 cumulative IPC: 2.964 (Simulation time: 00 hr 36 min 14 sec)
Heartbeat CPU 0 instructions: 470000004 cycles: 154396703 heartbeat IPC: 2.921 cumulative IPC: 2.963 (Simulation time: 00 hr 37 min 12 sec)
Heartbeat CPU 0 instructions: 480000000 cycles: 157824930 heartbeat IPC: 2.917 cumulative IPC: 2.962 (Simulation time: 00 hr 38 min 16 sec)
Heartbeat CPU 0 instructions: 490000000 cycles: 161250305 heartbeat IPC: 2.919 cumulative IPC: 2.961 (Simulation time: 00 hr 39 min 16 sec)
Heartbeat CPU 0 instructions: 500000002 cycles: 164677067 heartbeat IPC: 2.918 cumulative IPC: 2.96 (Simulation time: 00 hr 40 min 14 sec)
Heartbeat CPU 0 instructions: 510000001 cycles: 168106000 heartbeat IPC: 2.916 cumulative IPC: 2.959 (Simulation time: 00 hr 41 min 09 sec)
Heartbeat CPU 0 instructions: 520000003 cycles: 171531331 heartbeat IPC: 2.919 cumulative IPC: 2.958 (Simulation time: 00 hr 42 min 11 sec)
Heartbeat CPU 0 instructions: 530000002 cycles: 174955201 heartbeat IPC: 2.921 cumulative IPC: 2.957 (Simulation time: 00 hr 43 min 15 sec)
Heartbeat CPU 0 instructions: 540000000 cycles: 178383900 heartbeat IPC: 2.917 cumulative IPC: 2.956 (Simulation time: 00 hr 44 min 16 sec)
Heartbeat CPU 0 instructions: 550000000 cycles: 181810141 heartbeat IPC: 2.919 cumulative IPC: 2.955 (Simulation time: 00 hr 45 min 16 sec)
Heartbeat CPU 0 instructions: 560000001 cycles: 185234890 heartbeat IPC: 2.92 cumulative IPC: 2.955 (Simulation time: 00 hr 46 min 10 sec)
Heartbeat CPU 0 instructions: 570000001 cycles: 188660372 heartbeat IPC: 2.919 cumulative IPC: 2.954 (Simulation time: 00 hr 47 min 03 sec)
Heartbeat CPU 0 instructions: 580000000 cycles: 192090161 heartbeat IPC: 2.916 cumulative IPC: 2.953 (Simulation time: 00 hr 47 min 57 sec)
Heartbeat CPU 0 instructions: 590000003 cycles: 195516546 heartbeat IPC: 2.919 cumulative IPC: 2.953 (Simulation time: 00 hr 48 min 52 sec)
*** Reached end of trace: (0, "traces/l1l2cache.champsimtrace")
Heartbeat CPU 0 instructions: 600000001 cycles: 198944682 heartbeat IPC: 2.917 cumulative IPC: 2.952 (Simulation time: 00 hr 49 min 54 sec)
Heartbeat CPU 0 instructions: 610000000 cycles: 205310236 heartbeat IPC: 1.571 cumulative IPC: 2.906 (Simulation time: 00 hr 51 min 32 sec)
Heartbeat CPU 0 instructions: 620000004 cycles: 208058225 heartbeat IPC: 3.639 cumulative IPC: 2.917 (Simulation time: 00 hr 52 min 32 sec)
Heartbeat CPU 0 instructions: 630000004 cycles: 211481301 heartbeat IPC: 2.921 cumulative IPC: 2.917 (Simulation time: 00 hr 53 min 31 sec)
Heartbeat CPU 0 instructions: 640000000 cycles: 214906229 heartbeat IPC: 2.92 cumulative IPC: 2.917 (Simulation time: 00 hr 54 min 28 sec)
Heartbeat CPU 0 instructions: 650000004 cycles: 218335633 heartbeat IPC: 2.916 cumulative IPC: 2.917 (Simulation time: 00 hr 55 min 24 sec)
Simulation finished CPU 0 instructions: 600000004 cycles: 205704359 cumulative IPC: 2.917 (Simulation time: 00 hr 55 min 24 sec)
Simulation complete CPU 0 instructions: 600000004 cycles: 205704359 cumulative IPC: 2.917 (Simulation time: 00 hr 55 min 24 sec)

ChampSim completed all CPUs

=== Simulation ===
CPU 0 runs traces/l1l2cache.champsimtrace
Region of Interest Statistics

CPU 0 cumulative IPC: 2.917 instructions: 600000004 cycles: 205704359
CPU 0 Branch Prediction Accuracy: 93.04% MPKI: 5.913 Average ROB Occupancy at Mispredict: 67.87
Branch type MPKI
BRANCH_DIRECT_JUMP: 9.5e-05
BRANCH_INDIRECT: 0.000282
BRANCH_CONDITIONAL: 5.91
BRANCH_DIRECT_CALL: 3.33e-06
BRANCH_INDIRECT_CALL: 4.83e-05
BRANCH_RETURN: 3.33e-05

LLC TOTAL        ACCESS:     319113 HIT:     277279 MISS:      41834
LLC LOAD         ACCESS:      59445 HIT:      53632 MISS:       5813
LLC RFO          ACCESS:      99913 HIT:      72884 MISS:      27029
LLC PREFETCH     ACCESS:      59445 HIT:      51462 MISS:       7983
LLC WRITE        ACCESS:     100305 HIT:      99300 MISS:       1005
LLC TRANSLATION  ACCESS:          5 HIT:          1 MISS:          4
LLC PREFETCH REQUESTED:      59445 ISSUED:      59445 USEFUL:       5319 USELESS:       1717
LLC AVERAGE MISS LATENCY: 676.7 cycles
cpu0_DTLB TOTAL        ACCESS:   82389125 HIT:   82378297 MISS:      10828
cpu0_DTLB LOAD         ACCESS:   82389125 HIT:   82378297 MISS:      10828
cpu0_DTLB RFO          ACCESS:          0 HIT:          0 MISS:          0
cpu0_DTLB PREFETCH     ACCESS:          0 HIT:          0 MISS:          0
cpu0_DTLB WRITE        ACCESS:          0 HIT:          0 MISS:          0
cpu0_DTLB TRANSLATION  ACCESS:          0 HIT:          0 MISS:          0
cpu0_DTLB PREFETCH REQUESTED:          0 ISSUED:          0 USEFUL:          0 USELESS:          0
cpu0_DTLB AVERAGE MISS LATENCY: 5.841 cycles
cpu0_ITLB TOTAL        ACCESS:       5553 HIT:       5335 MISS:        218
cpu0_ITLB LOAD         ACCESS:       5553 HIT:       5335 MISS:        218
cpu0_ITLB RFO          ACCESS:          0 HIT:          0 MISS:          0
cpu0_ITLB PREFETCH     ACCESS:          0 HIT:          0 MISS:          0
cpu0_ITLB WRITE        ACCESS:          0 HIT:          0 MISS:          0
cpu0_ITLB TRANSLATION  ACCESS:          0 HIT:          0 MISS:          0
cpu0_ITLB PREFETCH REQUESTED:          0 ISSUED:          0 USEFUL:          0 USELESS:          0
cpu0_ITLB AVERAGE MISS LATENCY: 6.454 cycles
cpu0_L1D TOTAL        ACCESS:  104668664 HIT:  103277308 MISS:    1391356
cpu0_L1D LOAD         ACCESS:   45390188 HIT:   45044727 MISS:     345461
cpu0_L1D RFO          ACCESS:          0 HIT:          0 MISS:          0
cpu0_L1D PREFETCH     ACCESS:          0 HIT:          0 MISS:          0
cpu0_L1D WRITE        ACCESS:   59278218 HIT:   58232328 MISS:    1045890
cpu0_L1D TRANSLATION  ACCESS:        258 HIT:        253 MISS:          5
cpu0_L1D PREFETCH REQUESTED:          0 ISSUED:          0 USEFUL:          0 USELESS:          0
cpu0_L1D AVERAGE MISS LATENCY: 16.47 cycles
cpu0_L1I TOTAL        ACCESS:       6317 HIT:       4079 MISS:       2238
cpu0_L1I LOAD         ACCESS:       6317 HIT:       4079 MISS:       2238
cpu0_L1I RFO          ACCESS:          0 HIT:          0 MISS:          0
cpu0_L1I PREFETCH     ACCESS:          0 HIT:          0 MISS:          0
cpu0_L1I WRITE        ACCESS:          0 HIT:          0 MISS:          0
cpu0_L1I TRANSLATION  ACCESS:          0 HIT:          0 MISS:          0
cpu0_L1I PREFETCH REQUESTED:          0 ISSUED:          0 USEFUL:          0 USELESS:          0
cpu0_L1I AVERAGE MISS LATENCY: 440.9 cycles
cpu0_L2C TOTAL        ACCESS:     265737 HIT:     106350 MISS:     159387
cpu0_L2C LOAD         ACCESS:      63735 HIT:       4290 MISS:      59445
cpu0_L2C RFO          ACCESS:     100733 HIT:        820 MISS:      99913
cpu0_L2C PREFETCH     ACCESS:          0 HIT:          0 MISS:          0
cpu0_L2C WRITE        ACCESS:     101264 HIT:     101240 MISS:         24
cpu0_L2C TRANSLATION  ACCESS:          5 HIT:          0 MISS:          5
cpu0_L2C PREFETCH REQUESTED:          0 ISSUED:          0 USEFUL:          0 USELESS:          0
cpu0_L2C AVERAGE MISS LATENCY: 169.9 cycles
cpu0_STLB TOTAL        ACCESS:       3913 HIT:       3656 MISS:        257
cpu0_STLB LOAD         ACCESS:       3913 HIT:       3656 MISS:        257
cpu0_STLB RFO          ACCESS:          0 HIT:          0 MISS:          0
cpu0_STLB PREFETCH     ACCESS:          0 HIT:          0 MISS:          0
cpu0_STLB WRITE        ACCESS:          0 HIT:          0 MISS:          0
cpu0_STLB TRANSLATION  ACCESS:          0 HIT:          0 MISS:          0
cpu0_STLB PREFETCH REQUESTED:          0 ISSUED:          0 USEFUL:          0 USELESS:          0
cpu0_STLB AVERAGE MISS LATENCY: 216.6 cycles

DRAM Statistics

Channel 0 RQ ROW_BUFFER_HIT:      19710
  ROW_BUFFER_MISS:      17888
 AVG DBUS CONGESTED CYCLE: 3.972
WQ ROW_BUFFER_HIT: Channel 0 
  ROW_BUFFER_MISS:       1653
  FULL:      15042
Final OPTGen Hits: 2726
Final OPTGen Access: 3472
Final OPTGEN Hit Rate: 78.5139
