WARNING: physical memory size is smaller than virtual memory size.

*** ChampSim Multicore Out-of-Order Simulator ***
Warmup Instructions: 50000000
Simulation Instructions: 600000000
Number of CPUs: 1
Page size: 4096

Off-chip DRAM Size: 4 GiB Channels: 1 Width: 64-bit Data Race: 3200 MT/s
Heartbeat CPU 0 instructions: 10000004 cycles: 2777663 heartbeat IPC: 3.6 cumulative IPC: 3.6 (Simulation time: 00 hr 00 min 41 sec)
Heartbeat CPU 0 instructions: 20000001 cycles: 5634805 heartbeat IPC: 3.5 cumulative IPC: 3.549 (Simulation time: 00 hr 01 min 31 sec)
Heartbeat CPU 0 instructions: 30000000 cycles: 8491948 heartbeat IPC: 3.5 cumulative IPC: 3.533 (Simulation time: 00 hr 02 min 23 sec)
Heartbeat CPU 0 instructions: 40000003 cycles: 11120601 heartbeat IPC: 3.804 cumulative IPC: 3.597 (Simulation time: 00 hr 03 min 10 sec)
Heartbeat CPU 0 instructions: 50000003 cycles: 13620601 heartbeat IPC: 4 cumulative IPC: 3.671 (Simulation time: 00 hr 03 min 59 sec)
Warmup finished CPU 0 instructions: 50000003 cycles: 13620602 cumulative IPC: 3.671 (Simulation time: 00 hr 03 min 59 sec)
Warmup complete CPU 0 instructions: 50000003 cycles: 13620602 cumulative IPC: 3.671 (Simulation time: 00 hr 03 min 59 sec)
Heartbeat CPU 0 instructions: 60000002 cycles: 16295256 heartbeat IPC: 3.739 cumulative IPC: 3.739 (Simulation time: 00 hr 04 min 51 sec)
Heartbeat CPU 0 instructions: 70000001 cycles: 18969955 heartbeat IPC: 3.739 cumulative IPC: 3.739 (Simulation time: 00 hr 05 min 43 sec)
Heartbeat CPU 0 instructions: 80000000 cycles: 21644609 heartbeat IPC: 3.739 cumulative IPC: 3.739 (Simulation time: 00 hr 06 min 35 sec)
Heartbeat CPU 0 instructions: 90000003 cycles: 24320493 heartbeat IPC: 3.737 cumulative IPC: 3.738 (Simulation time: 00 hr 07 min 30 sec)
Heartbeat CPU 0 instructions: 100000003 cycles: 26995148 heartbeat IPC: 3.739 cumulative IPC: 3.738 (Simulation time: 00 hr 08 min 32 sec)
Heartbeat CPU 0 instructions: 110000004 cycles: 29669849 heartbeat IPC: 3.739 cumulative IPC: 3.738 (Simulation time: 00 hr 09 min 31 sec)
Heartbeat CPU 0 instructions: 120000003 cycles: 32344532 heartbeat IPC: 3.739 cumulative IPC: 3.739 (Simulation time: 00 hr 10 min 30 sec)
Heartbeat CPU 0 instructions: 130000002 cycles: 35019202 heartbeat IPC: 3.739 cumulative IPC: 3.739 (Simulation time: 00 hr 11 min 27 sec)
Heartbeat CPU 0 instructions: 140000002 cycles: 37694278 heartbeat IPC: 3.738 cumulative IPC: 3.739 (Simulation time: 00 hr 12 min 25 sec)
Heartbeat CPU 0 instructions: 150000000 cycles: 40368933 heartbeat IPC: 3.739 cumulative IPC: 3.739 (Simulation time: 00 hr 13 min 22 sec)
Heartbeat CPU 0 instructions: 160000001 cycles: 43043634 heartbeat IPC: 3.739 cumulative IPC: 3.739 (Simulation time: 00 hr 14 min 21 sec)
Heartbeat CPU 0 instructions: 170000004 cycles: 45718288 heartbeat IPC: 3.739 cumulative IPC: 3.739 (Simulation time: 00 hr 15 min 18 sec)
Heartbeat CPU 0 instructions: 180000000 cycles: 48393368 heartbeat IPC: 3.738 cumulative IPC: 3.739 (Simulation time: 00 hr 16 min 14 sec)
Heartbeat CPU 0 instructions: 190000004 cycles: 51068067 heartbeat IPC: 3.739 cumulative IPC: 3.739 (Simulation time: 00 hr 17 min 13 sec)
Heartbeat CPU 0 instructions: 200000002 cycles: 53742724 heartbeat IPC: 3.739 cumulative IPC: 3.739 (Simulation time: 00 hr 18 min 12 sec)
Heartbeat CPU 0 instructions: 210000003 cycles: 56417425 heartbeat IPC: 3.739 cumulative IPC: 3.739 (Simulation time: 00 hr 19 min 10 sec)
Heartbeat CPU 0 instructions: 220000001 cycles: 59092078 heartbeat IPC: 3.739 cumulative IPC: 3.739 (Simulation time: 00 hr 20 min 09 sec)
Heartbeat CPU 0 instructions: 230000002 cycles: 61767151 heartbeat IPC: 3.738 cumulative IPC: 3.739 (Simulation time: 00 hr 21 min 08 sec)
Heartbeat CPU 0 instructions: 240000003 cycles: 64441805 heartbeat IPC: 3.739 cumulative IPC: 3.739 (Simulation time: 00 hr 22 min 07 sec)
Heartbeat CPU 0 instructions: 250000004 cycles: 67116507 heartbeat IPC: 3.739 cumulative IPC: 3.739 (Simulation time: 00 hr 23 min 05 sec)
Heartbeat CPU 0 instructions: 260000000 cycles: 69791203 heartbeat IPC: 3.739 cumulative IPC: 3.739 (Simulation time: 00 hr 24 min 19 sec)
Heartbeat CPU 0 instructions: 270000003 cycles: 72466693 heartbeat IPC: 3.738 cumulative IPC: 3.739 (Simulation time: 00 hr 25 min 08 sec)
Heartbeat CPU 0 instructions: 280000001 cycles: 75141392 heartbeat IPC: 3.739 cumulative IPC: 3.739 (Simulation time: 00 hr 25 min 44 sec)
Heartbeat CPU 0 instructions: 290000000 cycles: 77816046 heartbeat IPC: 3.739 cumulative IPC: 3.739 (Simulation time: 00 hr 26 min 19 sec)
Heartbeat CPU 0 instructions: 300000001 cycles: 80490748 heartbeat IPC: 3.739 cumulative IPC: 3.739 (Simulation time: 00 hr 27 min 07 sec)
Heartbeat CPU 0 instructions: 310000000 cycles: 83165402 heartbeat IPC: 3.739 cumulative IPC: 3.739 (Simulation time: 00 hr 28 min 07 sec)
Heartbeat CPU 0 instructions: 320000000 cycles: 85840476 heartbeat IPC: 3.738 cumulative IPC: 3.739 (Simulation time: 00 hr 29 min 28 sec)
Heartbeat CPU 0 instructions: 330000002 cycles: 88515174 heartbeat IPC: 3.739 cumulative IPC: 3.739 (Simulation time: 00 hr 30 min 08 sec)
Heartbeat CPU 0 instructions: 340000002 cycles: 91189830 heartbeat IPC: 3.739 cumulative IPC: 3.739 (Simulation time: 00 hr 30 min 52 sec)
Heartbeat CPU 0 instructions: 350000003 cycles: 93864532 heartbeat IPC: 3.739 cumulative IPC: 3.739 (Simulation time: 00 hr 31 min 39 sec)
Heartbeat CPU 0 instructions: 360000001 cycles: 96539549 heartbeat IPC: 3.738 cumulative IPC: 3.739 (Simulation time: 00 hr 32 min 32 sec)
Heartbeat CPU 0 instructions: 370000002 cycles: 99214250 heartbeat IPC: 3.739 cumulative IPC: 3.739 (Simulation time: 00 hr 33 min 34 sec)
Heartbeat CPU 0 instructions: 380000001 cycles: 101888917 heartbeat IPC: 3.739 cumulative IPC: 3.739 (Simulation time: 00 hr 34 min 39 sec)
Heartbeat CPU 0 instructions: 390000004 cycles: 104563604 heartbeat IPC: 3.739 cumulative IPC: 3.739 (Simulation time: 00 hr 35 min 44 sec)
Heartbeat CPU 0 instructions: 400000000 cycles: 107238302 heartbeat IPC: 3.739 cumulative IPC: 3.739 (Simulation time: 00 hr 36 min 46 sec)
Heartbeat CPU 0 instructions: 410000003 cycles: 109913333 heartbeat IPC: 3.738 cumulative IPC: 3.739 (Simulation time: 00 hr 37 min 50 sec)
Heartbeat CPU 0 instructions: 420000003 cycles: 118344498 heartbeat IPC: 1.186 cumulative IPC: 3.533 (Simulation time: 00 hr 40 min 04 sec)
Heartbeat CPU 0 instructions: 430000003 cycles: 140373591 heartbeat IPC: 0.4539 cumulative IPC: 2.998 (Simulation time: 00 hr 45 min 13 sec)
Heartbeat CPU 0 instructions: 440000004 cycles: 159237999 heartbeat IPC: 0.5301 cumulative IPC: 2.678 (Simulation time: 00 hr 49 min 48 sec)
Heartbeat CPU 0 instructions: 450000000 cycles: 178070360 heartbeat IPC: 0.531 cumulative IPC: 2.432 (Simulation time: 00 hr 54 min 12 sec)
Heartbeat CPU 0 instructions: 460000002 cycles: 196904452 heartbeat IPC: 0.531 cumulative IPC: 2.237 (Simulation time: 01 hr 03 min 02 sec)
Heartbeat CPU 0 instructions: 470000003 cycles: 215755444 heartbeat IPC: 0.5305 cumulative IPC: 2.078 (Simulation time: 01 hr 06 min 46 sec)
Heartbeat CPU 0 instructions: 480000003 cycles: 234564410 heartbeat IPC: 0.5317 cumulative IPC: 1.946 (Simulation time: 01 hr 09 min 27 sec)
Heartbeat CPU 0 instructions: 490000004 cycles: 253353725 heartbeat IPC: 0.5322 cumulative IPC: 1.835 (Simulation time: 01 hr 12 min 15 sec)
Heartbeat CPU 0 instructions: 500000003 cycles: 272221645 heartbeat IPC: 0.53 cumulative IPC: 1.74 (Simulation time: 01 hr 16 min 17 sec)
Heartbeat CPU 0 instructions: 510000002 cycles: 291003742 heartbeat IPC: 0.5324 cumulative IPC: 1.658 (Simulation time: 01 hr 20 min 56 sec)
Heartbeat CPU 0 instructions: 520000003 cycles: 309841579 heartbeat IPC: 0.5308 cumulative IPC: 1.587 (Simulation time: 01 hr 25 min 29 sec)
Heartbeat CPU 0 instructions: 530000003 cycles: 328625631 heartbeat IPC: 0.5324 cumulative IPC: 1.524 (Simulation time: 01 hr 30 min 03 sec)
Heartbeat CPU 0 instructions: 540000004 cycles: 347399057 heartbeat IPC: 0.5327 cumulative IPC: 1.468 (Simulation time: 01 hr 34 min 34 sec)
Heartbeat CPU 0 instructions: 550000000 cycles: 366227776 heartbeat IPC: 0.5311 cumulative IPC: 1.418 (Simulation time: 01 hr 38 min 02 sec)
Heartbeat CPU 0 instructions: 560000002 cycles: 385045982 heartbeat IPC: 0.5314 cumulative IPC: 1.373 (Simulation time: 01 hr 40 min 50 sec)
Heartbeat CPU 0 instructions: 570000002 cycles: 403894274 heartbeat IPC: 0.5306 cumulative IPC: 1.332 (Simulation time: 01 hr 43 min 35 sec)
Heartbeat CPU 0 instructions: 580000000 cycles: 422718478 heartbeat IPC: 0.5312 cumulative IPC: 1.296 (Simulation time: 01 hr 46 min 16 sec)
Heartbeat CPU 0 instructions: 590000000 cycles: 441557080 heartbeat IPC: 0.5308 cumulative IPC: 1.262 (Simulation time: 01 hr 48 min 53 sec)
*** Reached end of trace: (0, "traces/l1l2l3cache.champsimtrace")
Heartbeat CPU 0 instructions: 600000000 cycles: 460341090 heartbeat IPC: 0.5324 cumulative IPC: 1.231 (Simulation time: 01 hr 51 min 38 sec)
Heartbeat CPU 0 instructions: 610000004 cycles: 471068137 heartbeat IPC: 0.9322 cumulative IPC: 1.224 (Simulation time: 01 hr 53 min 30 sec)
Heartbeat CPU 0 instructions: 620000000 cycles: 486560219 heartbeat IPC: 0.6455 cumulative IPC: 1.205 (Simulation time: 01 hr 56 min 40 sec)
Heartbeat CPU 0 instructions: 630000000 cycles: 502089873 heartbeat IPC: 0.6439 cumulative IPC: 1.187 (Simulation time: 02 hr 00 min 04 sec)
Heartbeat CPU 0 instructions: 640000000 cycles: 509384225 heartbeat IPC: 1.371 cumulative IPC: 1.19 (Simulation time: 02 hr 02 min 03 sec)
Heartbeat CPU 0 instructions: 650000003 cycles: 512059284 heartbeat IPC: 3.738 cumulative IPC: 1.204 (Simulation time: 02 hr 03 min 05 sec)
Simulation finished CPU 0 instructions: 600000000 cycles: 498438683 cumulative IPC: 1.204 (Simulation time: 02 hr 03 min 05 sec)
Simulation complete CPU 0 instructions: 600000000 cycles: 498438683 cumulative IPC: 1.204 (Simulation time: 02 hr 03 min 05 sec)

ChampSim completed all CPUs

=== Simulation ===
CPU 0 runs traces/l1l2l3cache.champsimtrace
Region of Interest Statistics

CPU 0 cumulative IPC: 1.204 instructions: 600000000 cycles: 498438683
CPU 0 Branch Prediction Accuracy: 99.5% MPKI: 1.069 Average ROB Occupancy at Mispredict: 148.9
Branch type MPKI
BRANCH_DIRECT_JUMP: 8.5e-05
BRANCH_INDIRECT: 0.000237
BRANCH_CONDITIONAL: 1.07
BRANCH_DIRECT_CALL: 5e-06
BRANCH_INDIRECT_CALL: 4.67e-05
BRANCH_RETURN: 3.67e-05

LLC TOTAL        ACCESS:    3095869 HIT:     750955 MISS:    2344914
LLC LOAD         ACCESS:    1954443 HIT:     180174 MISS:    1774269
LLC RFO          ACCESS:     561712 HIT:        970 MISS:     560742
LLC PREFETCH     ACCESS:       6403 HIT:       1784 MISS:       4619
LLC WRITE        ACCESS:     562063 HIT:     562006 MISS:         57
LLC TRANSLATION  ACCESS:      11248 HIT:       6021 MISS:       5227
LLC PREFETCH REQUESTED:       6403 ISSUED:       6403 USEFUL:       2265 USELESS:        122
LLC AVERAGE MISS LATENCY: 699.1 cycles
cpu0_DTLB TOTAL        ACCESS:  130602164 HIT:  128587280 MISS:    2014884
cpu0_DTLB LOAD         ACCESS:  130602164 HIT:  128587280 MISS:    2014884
cpu0_DTLB RFO          ACCESS:          0 HIT:          0 MISS:          0
cpu0_DTLB PREFETCH     ACCESS:          0 HIT:          0 MISS:          0
cpu0_DTLB WRITE        ACCESS:          0 HIT:          0 MISS:          0
cpu0_DTLB TRANSLATION  ACCESS:          0 HIT:          0 MISS:          0
cpu0_DTLB PREFETCH REQUESTED:          0 ISSUED:          0 USEFUL:          0 USELESS:          0
cpu0_DTLB AVERAGE MISS LATENCY: 18.41 cycles
cpu0_ITLB TOTAL        ACCESS:       5016 HIT:       4787 MISS:        229
cpu0_ITLB LOAD         ACCESS:       5016 HIT:       4787 MISS:        229
cpu0_ITLB RFO          ACCESS:          0 HIT:          0 MISS:          0
cpu0_ITLB PREFETCH     ACCESS:          0 HIT:          0 MISS:          0
cpu0_ITLB WRITE        ACCESS:          0 HIT:          0 MISS:          0
cpu0_ITLB TRANSLATION  ACCESS:          0 HIT:          0 MISS:          0
cpu0_ITLB PREFETCH REQUESTED:          0 ISSUED:          0 USEFUL:          0 USELESS:          0
cpu0_ITLB AVERAGE MISS LATENCY: 238.8 cycles
cpu0_L1D TOTAL        ACCESS:  178125239 HIT:  166538207 MISS:   11587032
cpu0_L1D LOAD         ACCESS:   69802536 HIT:   67754642 MISS:    2047894
cpu0_L1D RFO          ACCESS:          0 HIT:          0 MISS:          0
cpu0_L1D PREFETCH     ACCESS:          0 HIT:          0 MISS:          0
cpu0_L1D WRITE        ACCESS:  107017202 HIT:   98224299 MISS:    8792903
cpu0_L1D TRANSLATION  ACCESS:    1305501 HIT:     559266 MISS:     746235
cpu0_L1D PREFETCH REQUESTED:          0 ISSUED:          0 USEFUL:          0 USELESS:          0
cpu0_L1D AVERAGE MISS LATENCY: 140.5 cycles
cpu0_L1I TOTAL        ACCESS:       5729 HIT:       3252 MISS:       2477
cpu0_L1I LOAD         ACCESS:       5729 HIT:       3252 MISS:       2477
cpu0_L1I RFO          ACCESS:          0 HIT:          0 MISS:          0
cpu0_L1I PREFETCH     ACCESS:          0 HIT:          0 MISS:          0
cpu0_L1I WRITE        ACCESS:          0 HIT:          0 MISS:          0
cpu0_L1I TRANSLATION  ACCESS:          0 HIT:          0 MISS:          0
cpu0_L1I PREFETCH REQUESTED:          0 ISSUED:          0 USEFUL:          0 USELESS:          0
cpu0_L1I AVERAGE MISS LATENCY: 292 cycles
cpu0_L2C TOTAL        ACCESS:    3903742 HIT:    1376320 MISS:    2527422
cpu0_L2C LOAD         ACCESS:    2009350 HIT:      54907 MISS:    1954443
cpu0_L2C RFO          ACCESS:     573497 HIT:      11785 MISS:     561712
cpu0_L2C PREFETCH     ACCESS:          0 HIT:          0 MISS:          0
cpu0_L2C WRITE        ACCESS:     574674 HIT:     574655 MISS:         19
cpu0_L2C TRANSLATION  ACCESS:     746221 HIT:     734973 MISS:      11248
cpu0_L2C PREFETCH REQUESTED:          0 ISSUED:          0 USEFUL:          0 USELESS:          0
cpu0_L2C AVERAGE MISS LATENCY: 669.3 cycles
cpu0_STLB TOTAL        ACCESS:    1982645 HIT:     677152 MISS:    1305493
cpu0_STLB LOAD         ACCESS:    1982645 HIT:     677152 MISS:    1305493
cpu0_STLB RFO          ACCESS:          0 HIT:          0 MISS:          0
cpu0_STLB PREFETCH     ACCESS:          0 HIT:          0 MISS:          0
cpu0_STLB WRITE        ACCESS:          0 HIT:          0 MISS:          0
cpu0_STLB TRANSLATION  ACCESS:          0 HIT:          0 MISS:          0
cpu0_STLB PREFETCH REQUESTED:          0 ISSUED:          0 USEFUL:          0 USELESS:          0
cpu0_STLB AVERAGE MISS LATENCY: 15.36 cycles

DRAM Statistics

Channel 0 RQ ROW_BUFFER_HIT:     109003
  ROW_BUFFER_MISS:    2232385
 AVG DBUS CONGESTED CYCLE: 3.947
WQ ROW_BUFFER_HIT: Channel 0 
  ROW_BUFFER_MISS:     168165
  FULL:     393791
