WARNING: physical memory size is smaller than virtual memory size.

*** ChampSim Multicore Out-of-Order Simulator ***
Warmup Instructions: 50000000
Simulation Instructions: 600000000
Number of CPUs: 1
Page size: 4096

CPU 0 Tage branch predictor
Off-chip DRAM Size: 4 GiB Channels: 1 Width: 64-bit Data Race: 3200 MT/s
Heartbeat CPU 0 instructions: 10000000 cycles: 2565785 heartbeat IPC: 3.897 cumulative IPC: 3.897 (Simulation time: 00 hr 00 min 41 sec)
Heartbeat CPU 0 instructions: 20000000 cycles: 5131274 heartbeat IPC: 3.898 cumulative IPC: 3.898 (Simulation time: 00 hr 01 min 24 sec)
Heartbeat CPU 0 instructions: 30000000 cycles: 7631274 heartbeat IPC: 4 cumulative IPC: 3.931 (Simulation time: 00 hr 01 min 59 sec)
Heartbeat CPU 0 instructions: 40000000 cycles: 10131274 heartbeat IPC: 4 cumulative IPC: 3.948 (Simulation time: 00 hr 02 min 34 sec)
Heartbeat CPU 0 instructions: 50000000 cycles: 12631274 heartbeat IPC: 4 cumulative IPC: 3.958 (Simulation time: 00 hr 03 min 13 sec)
Warmup finished CPU 0 instructions: 50000000 cycles: 12631275 cumulative IPC: 3.958 (Simulation time: 00 hr 03 min 13 sec)
Warmup complete CPU 0 instructions: 50000000 cycles: 12631275 cumulative IPC: 3.958 (Simulation time: 00 hr 03 min 13 sec)
Heartbeat CPU 0 instructions: 60000002 cycles: 15446860 heartbeat IPC: 3.552 cumulative IPC: 3.552 (Simulation time: 00 hr 03 min 55 sec)
Heartbeat CPU 0 instructions: 70000001 cycles: 18261922 heartbeat IPC: 3.552 cumulative IPC: 3.552 (Simulation time: 00 hr 04 min 37 sec)
Heartbeat CPU 0 instructions: 80000004 cycles: 21079021 heartbeat IPC: 3.55 cumulative IPC: 3.551 (Simulation time: 00 hr 05 min 20 sec)
Heartbeat CPU 0 instructions: 90000000 cycles: 23893913 heartbeat IPC: 3.553 cumulative IPC: 3.552 (Simulation time: 00 hr 06 min 02 sec)
Heartbeat CPU 0 instructions: 100000003 cycles: 26710910 heartbeat IPC: 3.55 cumulative IPC: 3.551 (Simulation time: 00 hr 06 min 44 sec)
Heartbeat CPU 0 instructions: 110000000 cycles: 29526056 heartbeat IPC: 3.552 cumulative IPC: 3.551 (Simulation time: 00 hr 07 min 28 sec)
Heartbeat CPU 0 instructions: 120000002 cycles: 32340652 heartbeat IPC: 3.553 cumulative IPC: 3.552 (Simulation time: 00 hr 08 min 09 sec)
Heartbeat CPU 0 instructions: 130000001 cycles: 35155871 heartbeat IPC: 3.552 cumulative IPC: 3.552 (Simulation time: 00 hr 08 min 51 sec)
Heartbeat CPU 0 instructions: 140000002 cycles: 37970732 heartbeat IPC: 3.553 cumulative IPC: 3.552 (Simulation time: 00 hr 09 min 33 sec)
Heartbeat CPU 0 instructions: 150000000 cycles: 40786093 heartbeat IPC: 3.552 cumulative IPC: 3.552 (Simulation time: 00 hr 10 min 14 sec)
Heartbeat CPU 0 instructions: 160000002 cycles: 43603215 heartbeat IPC: 3.55 cumulative IPC: 3.552 (Simulation time: 00 hr 10 min 55 sec)
Heartbeat CPU 0 instructions: 170000000 cycles: 46419904 heartbeat IPC: 3.55 cumulative IPC: 3.551 (Simulation time: 00 hr 11 min 37 sec)
Heartbeat CPU 0 instructions: 180000003 cycles: 49235188 heartbeat IPC: 3.552 cumulative IPC: 3.552 (Simulation time: 00 hr 12 min 17 sec)
Heartbeat CPU 0 instructions: 190000001 cycles: 52051321 heartbeat IPC: 3.551 cumulative IPC: 3.551 (Simulation time: 00 hr 12 min 57 sec)
Heartbeat CPU 0 instructions: 200000001 cycles: 54867266 heartbeat IPC: 3.551 cumulative IPC: 3.551 (Simulation time: 00 hr 13 min 37 sec)
Heartbeat CPU 0 instructions: 210000004 cycles: 57683189 heartbeat IPC: 3.551 cumulative IPC: 3.551 (Simulation time: 00 hr 14 min 18 sec)
Heartbeat CPU 0 instructions: 220000002 cycles: 60498850 heartbeat IPC: 3.552 cumulative IPC: 3.551 (Simulation time: 00 hr 14 min 58 sec)
Heartbeat CPU 0 instructions: 230000002 cycles: 63550241 heartbeat IPC: 3.277 cumulative IPC: 3.535 (Simulation time: 00 hr 15 min 43 sec)
Heartbeat CPU 0 instructions: 240000003 cycles: 66176742 heartbeat IPC: 3.807 cumulative IPC: 3.548 (Simulation time: 00 hr 16 min 27 sec)
Heartbeat CPU 0 instructions: 250000003 cycles: 68992183 heartbeat IPC: 3.552 cumulative IPC: 3.549 (Simulation time: 00 hr 17 min 07 sec)
Heartbeat CPU 0 instructions: 260000002 cycles: 71806352 heartbeat IPC: 3.553 cumulative IPC: 3.549 (Simulation time: 00 hr 17 min 46 sec)
Heartbeat CPU 0 instructions: 270000004 cycles: 74621241 heartbeat IPC: 3.553 cumulative IPC: 3.549 (Simulation time: 00 hr 18 min 25 sec)
Heartbeat CPU 0 instructions: 280000001 cycles: 77437671 heartbeat IPC: 3.551 cumulative IPC: 3.549 (Simulation time: 00 hr 19 min 04 sec)
Heartbeat CPU 0 instructions: 290000002 cycles: 80253163 heartbeat IPC: 3.552 cumulative IPC: 3.549 (Simulation time: 00 hr 19 min 43 sec)
Heartbeat CPU 0 instructions: 300000004 cycles: 83069693 heartbeat IPC: 3.55 cumulative IPC: 3.549 (Simulation time: 00 hr 20 min 22 sec)
Heartbeat CPU 0 instructions: 310000002 cycles: 85886342 heartbeat IPC: 3.55 cumulative IPC: 3.549 (Simulation time: 00 hr 21 min 02 sec)
Heartbeat CPU 0 instructions: 320000000 cycles: 88702806 heartbeat IPC: 3.551 cumulative IPC: 3.549 (Simulation time: 00 hr 21 min 41 sec)
Heartbeat CPU 0 instructions: 330000004 cycles: 91518881 heartbeat IPC: 3.551 cumulative IPC: 3.549 (Simulation time: 00 hr 22 min 22 sec)
Heartbeat CPU 0 instructions: 340000000 cycles: 94335727 heartbeat IPC: 3.55 cumulative IPC: 3.549 (Simulation time: 00 hr 23 min 03 sec)
Heartbeat CPU 0 instructions: 350000003 cycles: 97151768 heartbeat IPC: 3.551 cumulative IPC: 3.549 (Simulation time: 00 hr 23 min 43 sec)
Heartbeat CPU 0 instructions: 360000003 cycles: 99968040 heartbeat IPC: 3.551 cumulative IPC: 3.549 (Simulation time: 00 hr 24 min 23 sec)
Heartbeat CPU 0 instructions: 370000003 cycles: 102784943 heartbeat IPC: 3.55 cumulative IPC: 3.549 (Simulation time: 00 hr 25 min 02 sec)
Heartbeat CPU 0 instructions: 380000003 cycles: 105599930 heartbeat IPC: 3.552 cumulative IPC: 3.55 (Simulation time: 00 hr 25 min 42 sec)
Heartbeat CPU 0 instructions: 390000000 cycles: 108415231 heartbeat IPC: 3.552 cumulative IPC: 3.55 (Simulation time: 00 hr 26 min 22 sec)
Heartbeat CPU 0 instructions: 400000002 cycles: 111232302 heartbeat IPC: 3.55 cumulative IPC: 3.55 (Simulation time: 00 hr 27 min 01 sec)
Heartbeat CPU 0 instructions: 410000004 cycles: 114047886 heartbeat IPC: 3.552 cumulative IPC: 3.55 (Simulation time: 00 hr 27 min 41 sec)
Heartbeat CPU 0 instructions: 420000001 cycles: 116865141 heartbeat IPC: 3.55 cumulative IPC: 3.55 (Simulation time: 00 hr 28 min 20 sec)
Heartbeat CPU 0 instructions: 430000001 cycles: 119680288 heartbeat IPC: 3.552 cumulative IPC: 3.55 (Simulation time: 00 hr 29 min 00 sec)
Heartbeat CPU 0 instructions: 440000002 cycles: 122496182 heartbeat IPC: 3.551 cumulative IPC: 3.55 (Simulation time: 00 hr 29 min 39 sec)
Heartbeat CPU 0 instructions: 450000001 cycles: 125131827 heartbeat IPC: 3.794 cumulative IPC: 3.556 (Simulation time: 00 hr 30 min 19 sec)
Heartbeat CPU 0 instructions: 460000002 cycles: 127755063 heartbeat IPC: 3.812 cumulative IPC: 3.561 (Simulation time: 00 hr 31 min 02 sec)
Heartbeat CPU 0 instructions: 470000004 cycles: 130571791 heartbeat IPC: 3.55 cumulative IPC: 3.561 (Simulation time: 00 hr 31 min 41 sec)
Heartbeat CPU 0 instructions: 480000000 cycles: 133387876 heartbeat IPC: 3.551 cumulative IPC: 3.561 (Simulation time: 00 hr 32 min 21 sec)
Heartbeat CPU 0 instructions: 490000000 cycles: 136204537 heartbeat IPC: 3.55 cumulative IPC: 3.561 (Simulation time: 00 hr 33 min 01 sec)
Heartbeat CPU 0 instructions: 500000002 cycles: 139020046 heartbeat IPC: 3.552 cumulative IPC: 3.56 (Simulation time: 00 hr 33 min 40 sec)
Heartbeat CPU 0 instructions: 510000001 cycles: 141835544 heartbeat IPC: 3.552 cumulative IPC: 3.56 (Simulation time: 00 hr 34 min 19 sec)
Heartbeat CPU 0 instructions: 520000003 cycles: 144651666 heartbeat IPC: 3.551 cumulative IPC: 3.56 (Simulation time: 00 hr 34 min 57 sec)
Heartbeat CPU 0 instructions: 530000002 cycles: 147467692 heartbeat IPC: 3.551 cumulative IPC: 3.56 (Simulation time: 00 hr 35 min 35 sec)
Heartbeat CPU 0 instructions: 540000000 cycles: 150283475 heartbeat IPC: 3.551 cumulative IPC: 3.56 (Simulation time: 00 hr 36 min 12 sec)
Heartbeat CPU 0 instructions: 550000000 cycles: 153098380 heartbeat IPC: 3.553 cumulative IPC: 3.56 (Simulation time: 00 hr 36 min 49 sec)
Heartbeat CPU 0 instructions: 560000001 cycles: 155914287 heartbeat IPC: 3.551 cumulative IPC: 3.559 (Simulation time: 00 hr 37 min 26 sec)
Heartbeat CPU 0 instructions: 570000001 cycles: 158731246 heartbeat IPC: 3.55 cumulative IPC: 3.559 (Simulation time: 00 hr 38 min 00 sec)
Heartbeat CPU 0 instructions: 580000002 cycles: 161547957 heartbeat IPC: 3.55 cumulative IPC: 3.559 (Simulation time: 00 hr 38 min 35 sec)
Heartbeat CPU 0 instructions: 590000003 cycles: 164363096 heartbeat IPC: 3.552 cumulative IPC: 3.559 (Simulation time: 00 hr 39 min 08 sec)
*** Reached end of trace: (0, "traces/l1l2cache.champsimtrace")
Heartbeat CPU 0 instructions: 600000001 cycles: 167180102 heartbeat IPC: 3.55 cumulative IPC: 3.559 (Simulation time: 00 hr 39 min 47 sec)
Heartbeat CPU 0 instructions: 610000001 cycles: 174864961 heartbeat IPC: 1.301 cumulative IPC: 3.452 (Simulation time: 00 hr 41 min 07 sec)
Heartbeat CPU 0 instructions: 620000004 cycles: 177530113 heartbeat IPC: 3.752 cumulative IPC: 3.457 (Simulation time: 00 hr 41 min 55 sec)
Heartbeat CPU 0 instructions: 630000004 cycles: 180344883 heartbeat IPC: 3.553 cumulative IPC: 3.458 (Simulation time: 00 hr 42 min 39 sec)
Heartbeat CPU 0 instructions: 640000000 cycles: 183160900 heartbeat IPC: 3.551 cumulative IPC: 3.46 (Simulation time: 00 hr 43 min 19 sec)
Heartbeat CPU 0 instructions: 650000004 cycles: 185976287 heartbeat IPC: 3.552 cumulative IPC: 3.461 (Simulation time: 00 hr 43 min 54 sec)
Simulation finished CPU 0 instructions: 600000004 cycles: 173345013 cumulative IPC: 3.461 (Simulation time: 00 hr 43 min 54 sec)
Simulation complete CPU 0 instructions: 600000004 cycles: 173345013 cumulative IPC: 3.461 (Simulation time: 00 hr 43 min 54 sec)

ChampSim completed all CPUs

=== Simulation ===
CPU 0 runs traces/l1l2cache.champsimtrace
Region of Interest Statistics

CPU 0 cumulative IPC: 3.461 instructions: 600000004 cycles: 173345013
CPU 0 Branch Prediction Accuracy: 97.76% MPKI: 1.901 Average ROB Occupancy at Mispredict: 151.3
Branch type MPKI
BRANCH_DIRECT_JUMP: 9.5e-05
BRANCH_INDIRECT: 0.000282
BRANCH_CONDITIONAL: 1.9
BRANCH_DIRECT_CALL: 3.33e-06
BRANCH_INDIRECT_CALL: 4.83e-05
BRANCH_RETURN: 3.33e-05

LLC TOTAL        ACCESS:     319111 HIT:     270527 MISS:      48584
LLC LOAD         ACCESS:      59445 HIT:      53184 MISS:       6261
LLC RFO          ACCESS:      99913 HIT:      66506 MISS:      33407
LLC PREFETCH     ACCESS:      59445 HIT:      51033 MISS:       8412
LLC WRITE        ACCESS:     100303 HIT:      99803 MISS:        500
LLC TRANSLATION  ACCESS:          5 HIT:          1 MISS:          4
LLC PREFETCH REQUESTED:      59445 ISSUED:      59445 USEFUL:       5653 USELESS:       1739
LLC AVERAGE MISS LATENCY: 789.1 cycles
cpu0_DTLB TOTAL        ACCESS:   78738587 HIT:   78727781 MISS:      10806
cpu0_DTLB LOAD         ACCESS:   78738587 HIT:   78727781 MISS:      10806
cpu0_DTLB RFO          ACCESS:          0 HIT:          0 MISS:          0
cpu0_DTLB PREFETCH     ACCESS:          0 HIT:          0 MISS:          0
cpu0_DTLB WRITE        ACCESS:          0 HIT:          0 MISS:          0
cpu0_DTLB TRANSLATION  ACCESS:          0 HIT:          0 MISS:          0
cpu0_DTLB PREFETCH REQUESTED:          0 ISSUED:          0 USEFUL:          0 USELESS:          0
cpu0_DTLB AVERAGE MISS LATENCY: 5.844 cycles
cpu0_ITLB TOTAL        ACCESS:       5630 HIT:       5390 MISS:        240
cpu0_ITLB LOAD         ACCESS:       5630 HIT:       5390 MISS:        240
cpu0_ITLB RFO          ACCESS:          0 HIT:          0 MISS:          0
cpu0_ITLB PREFETCH     ACCESS:          0 HIT:          0 MISS:          0
cpu0_ITLB WRITE        ACCESS:          0 HIT:          0 MISS:          0
cpu0_ITLB TRANSLATION  ACCESS:          0 HIT:          0 MISS:          0
cpu0_ITLB PREFETCH REQUESTED:          0 ISSUED:          0 USEFUL:          0 USELESS:          0
cpu0_ITLB AVERAGE MISS LATENCY: 5.775 cycles
cpu0_L1D TOTAL        ACCESS:   97801583 HIT:   96415101 MISS:    1386482
cpu0_L1D LOAD         ACCESS:   38630132 HIT:   38284250 MISS:     345882
cpu0_L1D RFO          ACCESS:          0 HIT:          0 MISS:          0
cpu0_L1D PREFETCH     ACCESS:          0 HIT:          0 MISS:          0
cpu0_L1D WRITE        ACCESS:   59171193 HIT:   58130598 MISS:    1040595
cpu0_L1D TRANSLATION  ACCESS:        258 HIT:        253 MISS:          5
cpu0_L1D PREFETCH REQUESTED:          0 ISSUED:          0 USEFUL:          0 USELESS:          0
cpu0_L1D AVERAGE MISS LATENCY: 22.6 cycles
cpu0_L1I TOTAL        ACCESS:       6426 HIT:       3954 MISS:       2472
cpu0_L1I LOAD         ACCESS:       6426 HIT:       3954 MISS:       2472
cpu0_L1I RFO          ACCESS:          0 HIT:          0 MISS:          0
cpu0_L1I PREFETCH     ACCESS:          0 HIT:          0 MISS:          0
cpu0_L1I WRITE        ACCESS:          0 HIT:          0 MISS:          0
cpu0_L1I TRANSLATION  ACCESS:          0 HIT:          0 MISS:          0
cpu0_L1I PREFETCH REQUESTED:          0 ISSUED:          0 USEFUL:          0 USELESS:          0
cpu0_L1I AVERAGE MISS LATENCY: 522.8 cycles
cpu0_L2C TOTAL        ACCESS:     265737 HIT:     106350 MISS:     159387
cpu0_L2C LOAD         ACCESS:      63736 HIT:       4291 MISS:      59445
cpu0_L2C RFO          ACCESS:     100733 HIT:        820 MISS:      99913
cpu0_L2C PREFETCH     ACCESS:          0 HIT:          0 MISS:          0
cpu0_L2C WRITE        ACCESS:     101263 HIT:     101239 MISS:         24
cpu0_L2C TRANSLATION  ACCESS:          5 HIT:          0 MISS:          5
cpu0_L2C PREFETCH REQUESTED:          0 ISSUED:          0 USEFUL:          0 USELESS:          0
cpu0_L2C AVERAGE MISS LATENCY: 225 cycles
cpu0_STLB TOTAL        ACCESS:       3912 HIT:       3655 MISS:        257
cpu0_STLB LOAD         ACCESS:       3912 HIT:       3655 MISS:        257
cpu0_STLB RFO          ACCESS:          0 HIT:          0 MISS:          0
cpu0_STLB PREFETCH     ACCESS:          0 HIT:          0 MISS:          0
cpu0_STLB WRITE        ACCESS:          0 HIT:          0 MISS:          0
cpu0_STLB TRANSLATION  ACCESS:          0 HIT:          0 MISS:          0
cpu0_STLB PREFETCH REQUESTED:          0 ISSUED:          0 USEFUL:          0 USELESS:          0
cpu0_STLB AVERAGE MISS LATENCY: 216.6 cycles

DRAM Statistics

Channel 0 RQ ROW_BUFFER_HIT:      23222
  ROW_BUFFER_MISS:      21364
 AVG DBUS CONGESTED CYCLE: 3.977
WQ ROW_BUFFER_HIT: Channel 0 
  ROW_BUFFER_MISS:       1763
  FULL:      21163
