WARNING: physical memory size is smaller than virtual memory size.

*** ChampSim Multicore Out-of-Order Simulator ***
Warmup Instructions: 50000000
Simulation Instructions: 600000000
Number of CPUs: 1
Page size: 4096

Off-chip DRAM Size: 4 GiB Channels: 1 Width: 64-bit Data Race: 3200 MT/s
Heartbeat CPU 0 instructions: 10000004 cycles: 2777663 heartbeat IPC: 3.6 cumulative IPC: 3.6 (Simulation time: 00 hr 00 min 58 sec)
Heartbeat CPU 0 instructions: 20000001 cycles: 5634805 heartbeat IPC: 3.5 cumulative IPC: 3.549 (Simulation time: 00 hr 01 min 52 sec)
Heartbeat CPU 0 instructions: 30000000 cycles: 8491948 heartbeat IPC: 3.5 cumulative IPC: 3.533 (Simulation time: 00 hr 02 min 48 sec)
Heartbeat CPU 0 instructions: 40000002 cycles: 11120600 heartbeat IPC: 3.804 cumulative IPC: 3.597 (Simulation time: 00 hr 03 min 45 sec)
Heartbeat CPU 0 instructions: 50000002 cycles: 13620600 heartbeat IPC: 4 cumulative IPC: 3.671 (Simulation time: 00 hr 04 min 36 sec)
Warmup finished CPU 0 instructions: 50000002 cycles: 13620601 cumulative IPC: 3.671 (Simulation time: 00 hr 04 min 36 sec)
Warmup complete CPU 0 instructions: 50000002 cycles: 13620601 cumulative IPC: 3.671 (Simulation time: 00 hr 04 min 36 sec)
Heartbeat CPU 0 instructions: 60000002 cycles: 16347845 heartbeat IPC: 3.667 cumulative IPC: 3.667 (Simulation time: 00 hr 05 min 35 sec)
Heartbeat CPU 0 instructions: 70000001 cycles: 19075145 heartbeat IPC: 3.667 cumulative IPC: 3.667 (Simulation time: 00 hr 06 min 39 sec)
Heartbeat CPU 0 instructions: 80000001 cycles: 21802387 heartbeat IPC: 3.667 cumulative IPC: 3.667 (Simulation time: 00 hr 07 min 48 sec)
Heartbeat CPU 0 instructions: 90000000 cycles: 24530053 heartbeat IPC: 3.666 cumulative IPC: 3.667 (Simulation time: 00 hr 09 min 20 sec)
Heartbeat CPU 0 instructions: 100000003 cycles: 27257296 heartbeat IPC: 3.667 cumulative IPC: 3.667 (Simulation time: 00 hr 10 min 34 sec)
Heartbeat CPU 0 instructions: 110000004 cycles: 29984599 heartbeat IPC: 3.667 cumulative IPC: 3.667 (Simulation time: 00 hr 11 min 47 sec)
Heartbeat CPU 0 instructions: 120000003 cycles: 32711869 heartbeat IPC: 3.667 cumulative IPC: 3.667 (Simulation time: 00 hr 12 min 50 sec)
Heartbeat CPU 0 instructions: 130000003 cycles: 35439142 heartbeat IPC: 3.667 cumulative IPC: 3.667 (Simulation time: 00 hr 13 min 56 sec)
Heartbeat CPU 0 instructions: 140000002 cycles: 38167080 heartbeat IPC: 3.666 cumulative IPC: 3.667 (Simulation time: 00 hr 15 min 01 sec)
Heartbeat CPU 0 instructions: 150000000 cycles: 40894323 heartbeat IPC: 3.667 cumulative IPC: 3.667 (Simulation time: 00 hr 16 min 01 sec)
Heartbeat CPU 0 instructions: 160000001 cycles: 43621627 heartbeat IPC: 3.667 cumulative IPC: 3.667 (Simulation time: 00 hr 17 min 00 sec)
Heartbeat CPU 0 instructions: 170000004 cycles: 46348868 heartbeat IPC: 3.667 cumulative IPC: 3.667 (Simulation time: 00 hr 17 min 58 sec)
Heartbeat CPU 0 instructions: 180000000 cycles: 49076698 heartbeat IPC: 3.666 cumulative IPC: 3.667 (Simulation time: 00 hr 19 min 00 sec)
Heartbeat CPU 0 instructions: 190000004 cycles: 51803984 heartbeat IPC: 3.667 cumulative IPC: 3.667 (Simulation time: 00 hr 20 min 02 sec)
Heartbeat CPU 0 instructions: 200000002 cycles: 54531242 heartbeat IPC: 3.667 cumulative IPC: 3.667 (Simulation time: 00 hr 21 min 04 sec)
Heartbeat CPU 0 instructions: 210000003 cycles: 57258545 heartbeat IPC: 3.667 cumulative IPC: 3.667 (Simulation time: 00 hr 22 min 07 sec)
Heartbeat CPU 0 instructions: 220000001 cycles: 59985787 heartbeat IPC: 3.667 cumulative IPC: 3.667 (Simulation time: 00 hr 23 min 08 sec)
Heartbeat CPU 0 instructions: 230000002 cycles: 62713464 heartbeat IPC: 3.666 cumulative IPC: 3.667 (Simulation time: 00 hr 24 min 14 sec)
Heartbeat CPU 0 instructions: 240000003 cycles: 65440706 heartbeat IPC: 3.667 cumulative IPC: 3.667 (Simulation time: 00 hr 25 min 20 sec)
Heartbeat CPU 0 instructions: 250000004 cycles: 68168009 heartbeat IPC: 3.667 cumulative IPC: 3.667 (Simulation time: 00 hr 26 min 25 sec)
Heartbeat CPU 0 instructions: 260000000 cycles: 70895292 heartbeat IPC: 3.667 cumulative IPC: 3.667 (Simulation time: 00 hr 27 min 27 sec)
Heartbeat CPU 0 instructions: 270000003 cycles: 73623075 heartbeat IPC: 3.666 cumulative IPC: 3.667 (Simulation time: 00 hr 28 min 34 sec)
Heartbeat CPU 0 instructions: 280000001 cycles: 76350376 heartbeat IPC: 3.667 cumulative IPC: 3.667 (Simulation time: 00 hr 29 min 44 sec)
Heartbeat CPU 0 instructions: 290000000 cycles: 79077617 heartbeat IPC: 3.667 cumulative IPC: 3.667 (Simulation time: 00 hr 31 min 11 sec)
Heartbeat CPU 0 instructions: 300000001 cycles: 81804920 heartbeat IPC: 3.667 cumulative IPC: 3.667 (Simulation time: 00 hr 32 min 57 sec)
Heartbeat CPU 0 instructions: 310000000 cycles: 84532162 heartbeat IPC: 3.667 cumulative IPC: 3.667 (Simulation time: 00 hr 35 min 23 sec)
Heartbeat CPU 0 instructions: 320000000 cycles: 87260153 heartbeat IPC: 3.666 cumulative IPC: 3.667 (Simulation time: 00 hr 37 min 38 sec)
Heartbeat CPU 0 instructions: 330000001 cycles: 89987449 heartbeat IPC: 3.667 cumulative IPC: 3.667 (Simulation time: 00 hr 39 min 38 sec)
Heartbeat CPU 0 instructions: 340000002 cycles: 92714696 heartbeat IPC: 3.667 cumulative IPC: 3.667 (Simulation time: 00 hr 41 min 44 sec)
Heartbeat CPU 0 instructions: 350000003 cycles: 95441999 heartbeat IPC: 3.667 cumulative IPC: 3.667 (Simulation time: 00 hr 43 min 57 sec)
Heartbeat CPU 0 instructions: 360000001 cycles: 98171173 heartbeat IPC: 3.664 cumulative IPC: 3.666 (Simulation time: 00 hr 47 min 00 sec)
Heartbeat CPU 0 instructions: 370000002 cycles: 100898477 heartbeat IPC: 3.667 cumulative IPC: 3.666 (Simulation time: 00 hr 49 min 44 sec)
Heartbeat CPU 0 instructions: 380000001 cycles: 103625731 heartbeat IPC: 3.667 cumulative IPC: 3.666 (Simulation time: 00 hr 52 min 09 sec)
Heartbeat CPU 0 instructions: 390000004 cycles: 106353020 heartbeat IPC: 3.667 cumulative IPC: 3.666 (Simulation time: 00 hr 54 min 26 sec)
Heartbeat CPU 0 instructions: 400000000 cycles: 109080320 heartbeat IPC: 3.667 cumulative IPC: 3.666 (Simulation time: 00 hr 57 min 05 sec)
Heartbeat CPU 0 instructions: 410000003 cycles: 111807564 heartbeat IPC: 3.667 cumulative IPC: 3.666 (Simulation time: 00 hr 59 min 48 sec)
Heartbeat CPU 0 instructions: 420000003 cycles: 119153081 heartbeat IPC: 1.361 cumulative IPC: 3.506 (Simulation time: 01 hr 04 min 09 sec)
Heartbeat CPU 0 instructions: 430000003 cycles: 138326418 heartbeat IPC: 0.5216 cumulative IPC: 3.047 (Simulation time: 01 hr 15 min 15 sec)
Heartbeat CPU 0 instructions: 440000004 cycles: 157484475 heartbeat IPC: 0.522 cumulative IPC: 2.711 (Simulation time: 01 hr 25 min 37 sec)
Heartbeat CPU 0 instructions: 450000000 cycles: 179689997 heartbeat IPC: 0.4503 cumulative IPC: 2.409 (Simulation time: 01 hr 36 min 36 sec)
Heartbeat CPU 0 instructions: 460000001 cycles: 198373681 heartbeat IPC: 0.5352 cumulative IPC: 2.219 (Simulation time: 01 hr 46 min 13 sec)
Heartbeat CPU 0 instructions: 470000003 cycles: 217497405 heartbeat IPC: 0.5229 cumulative IPC: 2.06 (Simulation time: 01 hr 56 min 53 sec)
Heartbeat CPU 0 instructions: 480000003 cycles: 236171651 heartbeat IPC: 0.5355 cumulative IPC: 1.932 (Simulation time: 02 hr 07 min 05 sec)
Heartbeat CPU 0 instructions: 490000000 cycles: 254766101 heartbeat IPC: 0.5378 cumulative IPC: 1.825 (Simulation time: 02 hr 16 min 56 sec)
Heartbeat CPU 0 instructions: 500000003 cycles: 273519717 heartbeat IPC: 0.5332 cumulative IPC: 1.731 (Simulation time: 02 hr 26 min 53 sec)
Heartbeat CPU 0 instructions: 510000002 cycles: 292117945 heartbeat IPC: 0.5377 cumulative IPC: 1.652 (Simulation time: 02 hr 37 min 04 sec)
Heartbeat CPU 0 instructions: 520000003 cycles: 310802029 heartbeat IPC: 0.5352 cumulative IPC: 1.582 (Simulation time: 02 hr 48 min 13 sec)
Heartbeat CPU 0 instructions: 530000003 cycles: 329423265 heartbeat IPC: 0.537 cumulative IPC: 1.52 (Simulation time: 02 hr 58 min 36 sec)
Heartbeat CPU 0 instructions: 540000004 cycles: 348024440 heartbeat IPC: 0.5376 cumulative IPC: 1.465 (Simulation time: 03 hr 09 min 57 sec)
Heartbeat CPU 0 instructions: 550000000 cycles: 366707186 heartbeat IPC: 0.5353 cumulative IPC: 1.416 (Simulation time: 03 hr 21 min 22 sec)
Heartbeat CPU 0 instructions: 560000002 cycles: 385305117 heartbeat IPC: 0.5377 cumulative IPC: 1.372 (Simulation time: 03 hr 31 min 52 sec)
Heartbeat CPU 0 instructions: 570000002 cycles: 404002422 heartbeat IPC: 0.5348 cumulative IPC: 1.332 (Simulation time: 03 hr 43 min 05 sec)
Heartbeat CPU 0 instructions: 580000004 cycles: 422605356 heartbeat IPC: 0.5375 cumulative IPC: 1.296 (Simulation time: 03 hr 53 min 31 sec)
Heartbeat CPU 0 instructions: 590000000 cycles: 441266535 heartbeat IPC: 0.5359 cumulative IPC: 1.263 (Simulation time: 03 hr 59 min 19 sec)
*** Reached end of trace: (0, "traces/l1l2l3cache.champsimtrace")
Heartbeat CPU 0 instructions: 600000000 cycles: 459933872 heartbeat IPC: 0.5357 cumulative IPC: 1.232 (Simulation time: 04 hr 02 min 18 sec)
Heartbeat CPU 0 instructions: 610000004 cycles: 473139334 heartbeat IPC: 0.7573 cumulative IPC: 1.219 (Simulation time: 04 hr 04 min 28 sec)
Heartbeat CPU 0 instructions: 620000001 cycles: 487699264 heartbeat IPC: 0.6868 cumulative IPC: 1.202 (Simulation time: 04 hr 06 min 49 sec)
Heartbeat CPU 0 instructions: 630000000 cycles: 502256199 heartbeat IPC: 0.687 cumulative IPC: 1.187 (Simulation time: 04 hr 09 min 26 sec)
Heartbeat CPU 0 instructions: 640000000 cycles: 509259664 heartbeat IPC: 1.428 cumulative IPC: 1.19 (Simulation time: 04 hr 10 min 49 sec)
Heartbeat CPU 0 instructions: 650000003 cycles: 511987310 heartbeat IPC: 3.666 cumulative IPC: 1.204 (Simulation time: 04 hr 11 min 35 sec)
Simulation finished CPU 0 instructions: 600000001 cycles: 498366710 cumulative IPC: 1.204 (Simulation time: 04 hr 11 min 35 sec)
Simulation complete CPU 0 instructions: 600000001 cycles: 498366710 cumulative IPC: 1.204 (Simulation time: 04 hr 11 min 35 sec)

ChampSim completed all CPUs

=== Simulation ===
CPU 0 runs traces/l1l2l3cache.champsimtrace
Region of Interest Statistics

CPU 0 cumulative IPC: 1.204 instructions: 600000001 cycles: 498366710
CPU 0 Branch Prediction Accuracy: 99.34% MPKI: 1.413 Average ROB Occupancy at Mispredict: 143.1
Branch type MPKI
BRANCH_DIRECT_JUMP: 8.5e-05
BRANCH_INDIRECT: 0.000237
BRANCH_CONDITIONAL: 1.41
BRANCH_DIRECT_CALL: 5e-06
BRANCH_INDIRECT_CALL: 4.67e-05
BRANCH_RETURN: 3.67e-05

LLC TOTAL        ACCESS:    3095796 HIT:     322132 MISS:    2773664
LLC LOAD         ACCESS:    1954447 HIT:     208454 MISS:    1745993
LLC RFO          ACCESS:     561712 HIT:      49644 MISS:     512068
LLC PREFETCH     ACCESS:       6325 HIT:       1667 MISS:       4658
LLC WRITE        ACCESS:     562065 HIT:      54858 MISS:     507207
LLC TRANSLATION  ACCESS:      11247 HIT:       7509 MISS:       3738
LLC PREFETCH REQUESTED:       6325 ISSUED:       6325 USEFUL:       2314 USELESS:        165
LLC AVERAGE MISS LATENCY: 579.1 cycles
cpu0_DTLB TOTAL        ACCESS:  131184997 HIT:  129170718 MISS:    2014279
cpu0_DTLB LOAD         ACCESS:  131184997 HIT:  129170718 MISS:    2014279
cpu0_DTLB RFO          ACCESS:          0 HIT:          0 MISS:          0
cpu0_DTLB PREFETCH     ACCESS:          0 HIT:          0 MISS:          0
cpu0_DTLB WRITE        ACCESS:          0 HIT:          0 MISS:          0
cpu0_DTLB TRANSLATION  ACCESS:          0 HIT:          0 MISS:          0
cpu0_DTLB PREFETCH REQUESTED:          0 ISSUED:          0 USEFUL:          0 USELESS:          0
cpu0_DTLB AVERAGE MISS LATENCY: 17.85 cycles
cpu0_ITLB TOTAL        ACCESS:       5005 HIT:       4784 MISS:        221
cpu0_ITLB LOAD         ACCESS:       5005 HIT:       4784 MISS:        221
cpu0_ITLB RFO          ACCESS:          0 HIT:          0 MISS:          0
cpu0_ITLB PREFETCH     ACCESS:          0 HIT:          0 MISS:          0
cpu0_ITLB WRITE        ACCESS:          0 HIT:          0 MISS:          0
cpu0_ITLB TRANSLATION  ACCESS:          0 HIT:          0 MISS:          0
cpu0_ITLB PREFETCH REQUESTED:          0 ISSUED:          0 USEFUL:          0 USELESS:          0
cpu0_ITLB AVERAGE MISS LATENCY: 269.9 cycles
cpu0_L1D TOTAL        ACCESS:  178509397 HIT:  167251011 MISS:   11258386
cpu0_L1D LOAD         ACCESS:   70572475 HIT:   68524822 MISS:    2047653
cpu0_L1D RFO          ACCESS:          0 HIT:          0 MISS:          0
cpu0_L1D PREFETCH     ACCESS:          0 HIT:          0 MISS:          0
cpu0_L1D WRITE        ACCESS:  106631421 HIT:   98166900 MISS:    8464521
cpu0_L1D TRANSLATION  ACCESS:    1305501 HIT:     559289 MISS:     746212
cpu0_L1D PREFETCH REQUESTED:          0 ISSUED:          0 USEFUL:          0 USELESS:          0
cpu0_L1D AVERAGE MISS LATENCY: 142.2 cycles
cpu0_L1I TOTAL        ACCESS:       5707 HIT:       3419 MISS:       2288
cpu0_L1I LOAD         ACCESS:       5707 HIT:       3419 MISS:       2288
cpu0_L1I RFO          ACCESS:          0 HIT:          0 MISS:          0
cpu0_L1I PREFETCH     ACCESS:          0 HIT:          0 MISS:          0
cpu0_L1I WRITE        ACCESS:          0 HIT:          0 MISS:          0
cpu0_L1I TRANSLATION  ACCESS:          0 HIT:          0 MISS:          0
cpu0_L1I PREFETCH REQUESTED:          0 ISSUED:          0 USEFUL:          0 USELESS:          0
cpu0_L1I AVERAGE MISS LATENCY: 354.2 cycles
cpu0_L2C TOTAL        ACCESS:    3903736 HIT:    1376312 MISS:    2527424
cpu0_L2C LOAD         ACCESS:    2009348 HIT:      54901 MISS:    1954447
cpu0_L2C RFO          ACCESS:     573505 HIT:      11793 MISS:     561712
cpu0_L2C PREFETCH     ACCESS:          0 HIT:          0 MISS:          0
cpu0_L2C WRITE        ACCESS:     574689 HIT:     574671 MISS:         18
cpu0_L2C TRANSLATION  ACCESS:     746194 HIT:     734947 MISS:      11247
cpu0_L2C PREFETCH REQUESTED:          0 ISSUED:          0 USEFUL:          0 USELESS:          0
cpu0_L2C AVERAGE MISS LATENCY: 656.1 cycles
cpu0_STLB TOTAL        ACCESS:    1982675 HIT:     677182 MISS:    1305493
cpu0_STLB LOAD         ACCESS:    1982675 HIT:     677182 MISS:    1305493
cpu0_STLB RFO          ACCESS:          0 HIT:          0 MISS:          0
cpu0_STLB PREFETCH     ACCESS:          0 HIT:          0 MISS:          0
cpu0_STLB WRITE        ACCESS:          0 HIT:          0 MISS:          0
cpu0_STLB TRANSLATION  ACCESS:          0 HIT:          0 MISS:          0
cpu0_STLB PREFETCH REQUESTED:          0 ISSUED:          0 USEFUL:          0 USELESS:          0
cpu0_STLB AVERAGE MISS LATENCY: 14.49 cycles

DRAM Statistics

Channel 0 RQ ROW_BUFFER_HIT:     125827
  ROW_BUFFER_MISS:    2137148
 AVG DBUS CONGESTED CYCLE: 3.94
WQ ROW_BUFFER_HIT: Channel 0 
  ROW_BUFFER_MISS:     165052
  FULL:     371612
