WARNING: physical memory size is smaller than virtual memory size.

*** ChampSim Multicore Out-of-Order Simulator ***
Warmup Instructions: 50000000
Simulation Instructions: 600000000
Number of CPUs: 1
Page size: 4096

CPU 0 Tage branch predictor
Off-chip DRAM Size: 4 GiB Channels: 1 Width: 64-bit Data Race: 3200 MT/s
Heartbeat CPU 0 instructions: 10000002 cycles: 2565786 heartbeat IPC: 3.897 cumulative IPC: 3.897 (Simulation time: 00 hr 00 min 52 sec)
Heartbeat CPU 0 instructions: 20000000 cycles: 5131275 heartbeat IPC: 3.898 cumulative IPC: 3.898 (Simulation time: 00 hr 01 min 39 sec)
Heartbeat CPU 0 instructions: 30000000 cycles: 7631275 heartbeat IPC: 4 cumulative IPC: 3.931 (Simulation time: 00 hr 02 min 24 sec)
Heartbeat CPU 0 instructions: 40000000 cycles: 10131275 heartbeat IPC: 4 cumulative IPC: 3.948 (Simulation time: 00 hr 03 min 12 sec)
Heartbeat CPU 0 instructions: 50000000 cycles: 12631275 heartbeat IPC: 4 cumulative IPC: 3.958 (Simulation time: 00 hr 04 min 04 sec)
Warmup finished CPU 0 instructions: 50000000 cycles: 12631276 cumulative IPC: 3.958 (Simulation time: 00 hr 04 min 04 sec)
Warmup complete CPU 0 instructions: 50000000 cycles: 12631276 cumulative IPC: 3.958 (Simulation time: 00 hr 04 min 04 sec)
Heartbeat CPU 0 instructions: 60000002 cycles: 15446861 heartbeat IPC: 3.552 cumulative IPC: 3.552 (Simulation time: 00 hr 04 min 52 sec)
Heartbeat CPU 0 instructions: 70000001 cycles: 18261923 heartbeat IPC: 3.552 cumulative IPC: 3.552 (Simulation time: 00 hr 05 min 36 sec)
Heartbeat CPU 0 instructions: 80000004 cycles: 21079022 heartbeat IPC: 3.55 cumulative IPC: 3.551 (Simulation time: 00 hr 06 min 23 sec)
Heartbeat CPU 0 instructions: 90000000 cycles: 23893914 heartbeat IPC: 3.553 cumulative IPC: 3.552 (Simulation time: 00 hr 07 min 09 sec)
Heartbeat CPU 0 instructions: 100000003 cycles: 26710911 heartbeat IPC: 3.55 cumulative IPC: 3.551 (Simulation time: 00 hr 07 min 53 sec)
Heartbeat CPU 0 instructions: 110000000 cycles: 29526057 heartbeat IPC: 3.552 cumulative IPC: 3.551 (Simulation time: 00 hr 08 min 38 sec)
Heartbeat CPU 0 instructions: 120000002 cycles: 32340653 heartbeat IPC: 3.553 cumulative IPC: 3.552 (Simulation time: 00 hr 09 min 23 sec)
Heartbeat CPU 0 instructions: 130000001 cycles: 35155872 heartbeat IPC: 3.552 cumulative IPC: 3.552 (Simulation time: 00 hr 10 min 08 sec)
Heartbeat CPU 0 instructions: 140000002 cycles: 37970733 heartbeat IPC: 3.553 cumulative IPC: 3.552 (Simulation time: 00 hr 10 min 52 sec)
Heartbeat CPU 0 instructions: 150000000 cycles: 40786094 heartbeat IPC: 3.552 cumulative IPC: 3.552 (Simulation time: 00 hr 11 min 36 sec)
Heartbeat CPU 0 instructions: 160000002 cycles: 43603216 heartbeat IPC: 3.55 cumulative IPC: 3.552 (Simulation time: 00 hr 12 min 18 sec)
Heartbeat CPU 0 instructions: 170000000 cycles: 46419905 heartbeat IPC: 3.55 cumulative IPC: 3.551 (Simulation time: 00 hr 13 min 01 sec)
Heartbeat CPU 0 instructions: 180000003 cycles: 49235189 heartbeat IPC: 3.552 cumulative IPC: 3.552 (Simulation time: 00 hr 13 min 47 sec)
Heartbeat CPU 0 instructions: 190000001 cycles: 52051322 heartbeat IPC: 3.551 cumulative IPC: 3.551 (Simulation time: 00 hr 14 min 29 sec)
Heartbeat CPU 0 instructions: 200000001 cycles: 54867267 heartbeat IPC: 3.551 cumulative IPC: 3.551 (Simulation time: 00 hr 15 min 11 sec)
Heartbeat CPU 0 instructions: 210000004 cycles: 57683190 heartbeat IPC: 3.551 cumulative IPC: 3.551 (Simulation time: 00 hr 15 min 53 sec)
Heartbeat CPU 0 instructions: 220000002 cycles: 60498851 heartbeat IPC: 3.552 cumulative IPC: 3.551 (Simulation time: 00 hr 16 min 34 sec)
Heartbeat CPU 0 instructions: 230000001 cycles: 63812774 heartbeat IPC: 3.018 cumulative IPC: 3.517 (Simulation time: 00 hr 17 min 27 sec)
Heartbeat CPU 0 instructions: 240000003 cycles: 72153335 heartbeat IPC: 1.199 cumulative IPC: 3.192 (Simulation time: 00 hr 18 min 54 sec)
Heartbeat CPU 0 instructions: 250000003 cycles: 74968776 heartbeat IPC: 3.552 cumulative IPC: 3.208 (Simulation time: 00 hr 19 min 35 sec)
Heartbeat CPU 0 instructions: 260000002 cycles: 77782945 heartbeat IPC: 3.553 cumulative IPC: 3.223 (Simulation time: 00 hr 20 min 17 sec)
Heartbeat CPU 0 instructions: 270000004 cycles: 80597834 heartbeat IPC: 3.553 cumulative IPC: 3.237 (Simulation time: 00 hr 20 min 59 sec)
Heartbeat CPU 0 instructions: 280000001 cycles: 83414264 heartbeat IPC: 3.551 cumulative IPC: 3.249 (Simulation time: 00 hr 21 min 41 sec)
Heartbeat CPU 0 instructions: 290000002 cycles: 86229756 heartbeat IPC: 3.552 cumulative IPC: 3.261 (Simulation time: 00 hr 22 min 23 sec)
Heartbeat CPU 0 instructions: 300000004 cycles: 89046286 heartbeat IPC: 3.55 cumulative IPC: 3.272 (Simulation time: 00 hr 23 min 08 sec)
Heartbeat CPU 0 instructions: 310000002 cycles: 91862935 heartbeat IPC: 3.55 cumulative IPC: 3.282 (Simulation time: 00 hr 23 min 53 sec)
Heartbeat CPU 0 instructions: 320000000 cycles: 94679399 heartbeat IPC: 3.551 cumulative IPC: 3.291 (Simulation time: 00 hr 24 min 37 sec)
Heartbeat CPU 0 instructions: 330000004 cycles: 97495474 heartbeat IPC: 3.551 cumulative IPC: 3.299 (Simulation time: 00 hr 25 min 22 sec)
Heartbeat CPU 0 instructions: 340000000 cycles: 100312320 heartbeat IPC: 3.55 cumulative IPC: 3.307 (Simulation time: 00 hr 26 min 07 sec)
Heartbeat CPU 0 instructions: 350000003 cycles: 103128361 heartbeat IPC: 3.551 cumulative IPC: 3.315 (Simulation time: 00 hr 26 min 52 sec)
Heartbeat CPU 0 instructions: 360000003 cycles: 105944633 heartbeat IPC: 3.551 cumulative IPC: 3.322 (Simulation time: 00 hr 27 min 36 sec)
Heartbeat CPU 0 instructions: 370000003 cycles: 108761536 heartbeat IPC: 3.55 cumulative IPC: 3.329 (Simulation time: 00 hr 28 min 19 sec)
Heartbeat CPU 0 instructions: 380000003 cycles: 111576523 heartbeat IPC: 3.552 cumulative IPC: 3.335 (Simulation time: 00 hr 29 min 01 sec)
Heartbeat CPU 0 instructions: 390000000 cycles: 114391824 heartbeat IPC: 3.552 cumulative IPC: 3.341 (Simulation time: 00 hr 29 min 45 sec)
Heartbeat CPU 0 instructions: 400000002 cycles: 117208895 heartbeat IPC: 3.55 cumulative IPC: 3.347 (Simulation time: 00 hr 30 min 26 sec)
Heartbeat CPU 0 instructions: 410000004 cycles: 120024479 heartbeat IPC: 3.552 cumulative IPC: 3.352 (Simulation time: 00 hr 31 min 08 sec)
Heartbeat CPU 0 instructions: 420000001 cycles: 122841734 heartbeat IPC: 3.55 cumulative IPC: 3.357 (Simulation time: 00 hr 31 min 50 sec)
Heartbeat CPU 0 instructions: 430000001 cycles: 125656881 heartbeat IPC: 3.552 cumulative IPC: 3.362 (Simulation time: 00 hr 32 min 33 sec)
Heartbeat CPU 0 instructions: 440000002 cycles: 128472775 heartbeat IPC: 3.551 cumulative IPC: 3.367 (Simulation time: 00 hr 33 min 16 sec)
Heartbeat CPU 0 instructions: 450000001 cycles: 131599464 heartbeat IPC: 3.198 cumulative IPC: 3.362 (Simulation time: 00 hr 34 min 04 sec)
Heartbeat CPU 0 instructions: 460000002 cycles: 139938150 heartbeat IPC: 1.199 cumulative IPC: 3.221 (Simulation time: 00 hr 35 min 31 sec)
Heartbeat CPU 0 instructions: 470000004 cycles: 142754878 heartbeat IPC: 3.55 cumulative IPC: 3.228 (Simulation time: 00 hr 36 min 14 sec)
Heartbeat CPU 0 instructions: 480000000 cycles: 145570963 heartbeat IPC: 3.551 cumulative IPC: 3.235 (Simulation time: 00 hr 36 min 57 sec)
Heartbeat CPU 0 instructions: 490000000 cycles: 148387624 heartbeat IPC: 3.55 cumulative IPC: 3.241 (Simulation time: 00 hr 37 min 40 sec)
Heartbeat CPU 0 instructions: 500000002 cycles: 151203133 heartbeat IPC: 3.552 cumulative IPC: 3.247 (Simulation time: 00 hr 38 min 21 sec)
Heartbeat CPU 0 instructions: 510000001 cycles: 154018631 heartbeat IPC: 3.552 cumulative IPC: 3.253 (Simulation time: 00 hr 39 min 03 sec)
Heartbeat CPU 0 instructions: 520000003 cycles: 156834753 heartbeat IPC: 3.551 cumulative IPC: 3.259 (Simulation time: 00 hr 39 min 45 sec)
Heartbeat CPU 0 instructions: 530000002 cycles: 159650779 heartbeat IPC: 3.551 cumulative IPC: 3.265 (Simulation time: 00 hr 40 min 26 sec)
Heartbeat CPU 0 instructions: 540000000 cycles: 162466562 heartbeat IPC: 3.551 cumulative IPC: 3.27 (Simulation time: 00 hr 41 min 09 sec)
Heartbeat CPU 0 instructions: 550000000 cycles: 165281467 heartbeat IPC: 3.553 cumulative IPC: 3.275 (Simulation time: 00 hr 41 min 52 sec)
Heartbeat CPU 0 instructions: 560000001 cycles: 168097374 heartbeat IPC: 3.551 cumulative IPC: 3.28 (Simulation time: 00 hr 42 min 34 sec)
Heartbeat CPU 0 instructions: 570000001 cycles: 170914333 heartbeat IPC: 3.55 cumulative IPC: 3.285 (Simulation time: 00 hr 43 min 16 sec)
Heartbeat CPU 0 instructions: 580000002 cycles: 173731044 heartbeat IPC: 3.55 cumulative IPC: 3.29 (Simulation time: 00 hr 43 min 58 sec)
Heartbeat CPU 0 instructions: 590000003 cycles: 176546183 heartbeat IPC: 3.552 cumulative IPC: 3.294 (Simulation time: 00 hr 44 min 46 sec)
*** Reached end of trace: (0, "traces/l1l2cache.champsimtrace")
Heartbeat CPU 0 instructions: 600000001 cycles: 179363189 heartbeat IPC: 3.55 cumulative IPC: 3.299 (Simulation time: 00 hr 45 min 28 sec)
Heartbeat CPU 0 instructions: 610000001 cycles: 182459518 heartbeat IPC: 3.23 cumulative IPC: 3.297 (Simulation time: 00 hr 46 min 15 sec)
Heartbeat CPU 0 instructions: 620000004 cycles: 185102288 heartbeat IPC: 3.784 cumulative IPC: 3.305 (Simulation time: 00 hr 47 min 04 sec)
Heartbeat CPU 0 instructions: 630000004 cycles: 187917058 heartbeat IPC: 3.553 cumulative IPC: 3.309 (Simulation time: 00 hr 47 min 46 sec)
Heartbeat CPU 0 instructions: 640000000 cycles: 190733075 heartbeat IPC: 3.551 cumulative IPC: 3.313 (Simulation time: 00 hr 48 min 31 sec)
Heartbeat CPU 0 instructions: 650000004 cycles: 193548462 heartbeat IPC: 3.552 cumulative IPC: 3.316 (Simulation time: 00 hr 49 min 13 sec)
Simulation finished CPU 0 instructions: 600000004 cycles: 180917187 cumulative IPC: 3.316 (Simulation time: 00 hr 49 min 13 sec)
Simulation complete CPU 0 instructions: 600000004 cycles: 180917187 cumulative IPC: 3.316 (Simulation time: 00 hr 49 min 13 sec)

ChampSim completed all CPUs

=== Simulation ===
CPU 0 runs traces/l1l2cache.champsimtrace
Region of Interest Statistics

CPU 0 cumulative IPC: 3.316 instructions: 600000004 cycles: 180917187
CPU 0 Branch Prediction Accuracy: 97.76% MPKI: 1.901 Average ROB Occupancy at Mispredict: 151.3
Branch type MPKI
BRANCH_DIRECT_JUMP: 9.5e-05
BRANCH_INDIRECT: 0.000282
BRANCH_CONDITIONAL: 1.9
BRANCH_DIRECT_CALL: 3.33e-06
BRANCH_INDIRECT_CALL: 4.83e-05
BRANCH_RETURN: 3.33e-05

LLC TOTAL        ACCESS:     259664 HIT:     139029 MISS:     120635
LLC LOAD         ACCESS:      59446 HIT:      35089 MISS:      24357
LLC RFO          ACCESS:      99912 HIT:      49018 MISS:      50894
LLC PREFETCH     ACCESS:          0 HIT:          0 MISS:          0
LLC WRITE        ACCESS:     100301 HIT:      54922 MISS:      45379
LLC TRANSLATION  ACCESS:          5 HIT:          0 MISS:          5
LLC PREFETCH REQUESTED:          0 ISSUED:          0 USEFUL:          0 USELESS:          0
LLC AVERAGE MISS LATENCY: 336.5 cycles
cpu0_DTLB TOTAL        ACCESS:   78767544 HIT:   78756576 MISS:      10968
cpu0_DTLB LOAD         ACCESS:   78767544 HIT:   78756576 MISS:      10968
cpu0_DTLB RFO          ACCESS:          0 HIT:          0 MISS:          0
cpu0_DTLB PREFETCH     ACCESS:          0 HIT:          0 MISS:          0
cpu0_DTLB WRITE        ACCESS:          0 HIT:          0 MISS:          0
cpu0_DTLB TRANSLATION  ACCESS:          0 HIT:          0 MISS:          0
cpu0_DTLB PREFETCH REQUESTED:          0 ISSUED:          0 USEFUL:          0 USELESS:          0
cpu0_DTLB AVERAGE MISS LATENCY: 5.791 cycles
cpu0_ITLB TOTAL        ACCESS:       5609 HIT:       5365 MISS:        244
cpu0_ITLB LOAD         ACCESS:       5609 HIT:       5365 MISS:        244
cpu0_ITLB RFO          ACCESS:          0 HIT:          0 MISS:          0
cpu0_ITLB PREFETCH     ACCESS:          0 HIT:          0 MISS:          0
cpu0_ITLB WRITE        ACCESS:          0 HIT:          0 MISS:          0
cpu0_ITLB TRANSLATION  ACCESS:          0 HIT:          0 MISS:          0
cpu0_ITLB PREFETCH REQUESTED:          0 ISSUED:          0 USEFUL:          0 USELESS:          0
cpu0_ITLB AVERAGE MISS LATENCY: 5.639 cycles
cpu0_L1D TOTAL        ACCESS:   97839797 HIT:   96052013 MISS:    1787784
cpu0_L1D LOAD         ACCESS:   38690715 HIT:   38193061 MISS:     497654
cpu0_L1D RFO          ACCESS:          0 HIT:          0 MISS:          0
cpu0_L1D PREFETCH     ACCESS:          0 HIT:          0 MISS:          0
cpu0_L1D WRITE        ACCESS:   59148824 HIT:   57858699 MISS:    1290125
cpu0_L1D TRANSLATION  ACCESS:        258 HIT:        253 MISS:          5
cpu0_L1D PREFETCH REQUESTED:          0 ISSUED:          0 USEFUL:          0 USELESS:          0
cpu0_L1D AVERAGE MISS LATENCY: 21.39 cycles
cpu0_L1I TOTAL        ACCESS:       6404 HIT:       3972 MISS:       2432
cpu0_L1I LOAD         ACCESS:       6404 HIT:       3972 MISS:       2432
cpu0_L1I RFO          ACCESS:          0 HIT:          0 MISS:          0
cpu0_L1I PREFETCH     ACCESS:          0 HIT:          0 MISS:          0
cpu0_L1I WRITE        ACCESS:          0 HIT:          0 MISS:          0
cpu0_L1I TRANSLATION  ACCESS:          0 HIT:          0 MISS:          0
cpu0_L1I PREFETCH REQUESTED:          0 ISSUED:          0 USEFUL:          0 USELESS:          0
cpu0_L1I AVERAGE MISS LATENCY: 114.3 cycles
cpu0_L2C TOTAL        ACCESS:     265760 HIT:     106378 MISS:     159382
cpu0_L2C LOAD         ACCESS:      63737 HIT:       4291 MISS:      59446
cpu0_L2C RFO          ACCESS:     100750 HIT:        838 MISS:      99912
cpu0_L2C PREFETCH     ACCESS:          0 HIT:          0 MISS:          0
cpu0_L2C WRITE        ACCESS:     101268 HIT:     101249 MISS:         19
cpu0_L2C TRANSLATION  ACCESS:          5 HIT:          0 MISS:          5
cpu0_L2C PREFETCH REQUESTED:          0 ISSUED:          0 USEFUL:          0 USELESS:          0
cpu0_L2C AVERAGE MISS LATENCY: 275.2 cycles
cpu0_STLB TOTAL        ACCESS:       3911 HIT:       3654 MISS:        257
cpu0_STLB LOAD         ACCESS:       3911 HIT:       3654 MISS:        257
cpu0_STLB RFO          ACCESS:          0 HIT:          0 MISS:          0
cpu0_STLB PREFETCH     ACCESS:          0 HIT:          0 MISS:          0
cpu0_STLB WRITE        ACCESS:          0 HIT:          0 MISS:          0
cpu0_STLB TRANSLATION  ACCESS:          0 HIT:          0 MISS:          0
cpu0_STLB PREFETCH REQUESTED:          0 ISSUED:          0 USEFUL:          0 USELESS:          0
cpu0_STLB AVERAGE MISS LATENCY: 218.4 cycles

DRAM Statistics

Channel 0 RQ ROW_BUFFER_HIT:      37188
  ROW_BUFFER_MISS:      37988
 AVG DBUS CONGESTED CYCLE: 3.935
WQ ROW_BUFFER_HIT: Channel 0 
  ROW_BUFFER_MISS:      26899
  FULL:      19040
