WARNING: physical memory size is smaller than virtual memory size.

*** ChampSim Multicore Out-of-Order Simulator ***
Warmup Instructions: 50000000
Simulation Instructions: 600000000
Number of CPUs: 1
Page size: 4096

Off-chip DRAM Size: 4 GiB Channels: 1 Width: 64-bit Data Race: 3200 MT/s
Heartbeat CPU 0 instructions: 10000000 cycles: 2565785 heartbeat IPC: 3.897 cumulative IPC: 3.897 (Simulation time: 00 hr 00 min 33 sec)
Heartbeat CPU 0 instructions: 20000000 cycles: 5131274 heartbeat IPC: 3.898 cumulative IPC: 3.898 (Simulation time: 00 hr 01 min 07 sec)
Heartbeat CPU 0 instructions: 30000000 cycles: 7631274 heartbeat IPC: 4 cumulative IPC: 3.931 (Simulation time: 00 hr 01 min 39 sec)
Heartbeat CPU 0 instructions: 40000000 cycles: 10131274 heartbeat IPC: 4 cumulative IPC: 3.948 (Simulation time: 00 hr 02 min 14 sec)
Heartbeat CPU 0 instructions: 50000000 cycles: 12631274 heartbeat IPC: 4 cumulative IPC: 3.958 (Simulation time: 00 hr 02 min 45 sec)
Warmup finished CPU 0 instructions: 50000000 cycles: 12631275 cumulative IPC: 3.958 (Simulation time: 00 hr 02 min 45 sec)
Warmup complete CPU 0 instructions: 50000000 cycles: 12631275 cumulative IPC: 3.958 (Simulation time: 00 hr 02 min 45 sec)
Heartbeat CPU 0 instructions: 60000000 cycles: 16058852 heartbeat IPC: 2.918 cumulative IPC: 2.918 (Simulation time: 00 hr 03 min 27 sec)
Heartbeat CPU 0 instructions: 70000000 cycles: 19488286 heartbeat IPC: 2.916 cumulative IPC: 2.917 (Simulation time: 00 hr 04 min 06 sec)
Heartbeat CPU 0 instructions: 80000004 cycles: 22914704 heartbeat IPC: 2.919 cumulative IPC: 2.917 (Simulation time: 00 hr 04 min 47 sec)
Heartbeat CPU 0 instructions: 90000000 cycles: 26342392 heartbeat IPC: 2.917 cumulative IPC: 2.917 (Simulation time: 00 hr 05 min 34 sec)
Heartbeat CPU 0 instructions: 100000003 cycles: 29773619 heartbeat IPC: 2.914 cumulative IPC: 2.917 (Simulation time: 00 hr 06 min 15 sec)
Heartbeat CPU 0 instructions: 110000000 cycles: 33199684 heartbeat IPC: 2.919 cumulative IPC: 2.917 (Simulation time: 00 hr 06 min 57 sec)
Heartbeat CPU 0 instructions: 120000001 cycles: 36624207 heartbeat IPC: 2.92 cumulative IPC: 2.918 (Simulation time: 00 hr 07 min 38 sec)
Heartbeat CPU 0 instructions: 130000001 cycles: 40050788 heartbeat IPC: 2.918 cumulative IPC: 2.918 (Simulation time: 00 hr 08 min 19 sec)
Heartbeat CPU 0 instructions: 140000002 cycles: 43477136 heartbeat IPC: 2.919 cumulative IPC: 2.918 (Simulation time: 00 hr 09 min 00 sec)
Heartbeat CPU 0 instructions: 150000000 cycles: 46902215 heartbeat IPC: 2.92 cumulative IPC: 2.918 (Simulation time: 00 hr 09 min 41 sec)
Heartbeat CPU 0 instructions: 160000002 cycles: 50328722 heartbeat IPC: 2.918 cumulative IPC: 2.918 (Simulation time: 00 hr 10 min 20 sec)
Heartbeat CPU 0 instructions: 170000000 cycles: 53756209 heartbeat IPC: 2.918 cumulative IPC: 2.918 (Simulation time: 00 hr 10 min 59 sec)
Heartbeat CPU 0 instructions: 180000004 cycles: 57182235 heartbeat IPC: 2.919 cumulative IPC: 2.918 (Simulation time: 00 hr 11 min 37 sec)
Heartbeat CPU 0 instructions: 190000001 cycles: 60608942 heartbeat IPC: 2.918 cumulative IPC: 2.918 (Simulation time: 00 hr 12 min 16 sec)
Heartbeat CPU 0 instructions: 200000001 cycles: 64034698 heartbeat IPC: 2.919 cumulative IPC: 2.918 (Simulation time: 00 hr 12 min 55 sec)
Heartbeat CPU 0 instructions: 210000004 cycles: 67460593 heartbeat IPC: 2.919 cumulative IPC: 2.918 (Simulation time: 00 hr 13 min 34 sec)
Heartbeat CPU 0 instructions: 220000002 cycles: 70888099 heartbeat IPC: 2.918 cumulative IPC: 2.918 (Simulation time: 00 hr 14 min 12 sec)
Heartbeat CPU 0 instructions: 230000002 cycles: 74072615 heartbeat IPC: 3.14 cumulative IPC: 2.93 (Simulation time: 00 hr 14 min 54 sec)
Heartbeat CPU 0 instructions: 240000003 cycles: 76810863 heartbeat IPC: 3.652 cumulative IPC: 2.96 (Simulation time: 00 hr 15 min 34 sec)
Heartbeat CPU 0 instructions: 250000003 cycles: 80244538 heartbeat IPC: 2.912 cumulative IPC: 2.958 (Simulation time: 00 hr 16 min 11 sec)
Heartbeat CPU 0 instructions: 260000000 cycles: 83671276 heartbeat IPC: 2.918 cumulative IPC: 2.956 (Simulation time: 00 hr 16 min 48 sec)
Heartbeat CPU 0 instructions: 270000004 cycles: 87097271 heartbeat IPC: 2.919 cumulative IPC: 2.954 (Simulation time: 00 hr 17 min 25 sec)
Heartbeat CPU 0 instructions: 280000000 cycles: 90525098 heartbeat IPC: 2.917 cumulative IPC: 2.953 (Simulation time: 00 hr 18 min 02 sec)
Heartbeat CPU 0 instructions: 290000002 cycles: 93953233 heartbeat IPC: 2.917 cumulative IPC: 2.951 (Simulation time: 00 hr 18 min 39 sec)
Heartbeat CPU 0 instructions: 300000004 cycles: 97376799 heartbeat IPC: 2.921 cumulative IPC: 2.95 (Simulation time: 00 hr 19 min 16 sec)
Heartbeat CPU 0 instructions: 310000002 cycles: 100804922 heartbeat IPC: 2.917 cumulative IPC: 2.949 (Simulation time: 00 hr 19 min 54 sec)
Heartbeat CPU 0 instructions: 320000000 cycles: 104232732 heartbeat IPC: 2.917 cumulative IPC: 2.948 (Simulation time: 00 hr 20 min 31 sec)
Heartbeat CPU 0 instructions: 330000004 cycles: 107659481 heartbeat IPC: 2.918 cumulative IPC: 2.946 (Simulation time: 00 hr 21 min 10 sec)
Heartbeat CPU 0 instructions: 340000000 cycles: 111086738 heartbeat IPC: 2.918 cumulative IPC: 2.945 (Simulation time: 00 hr 21 min 49 sec)
Heartbeat CPU 0 instructions: 350000003 cycles: 114515659 heartbeat IPC: 2.916 cumulative IPC: 2.945 (Simulation time: 00 hr 22 min 26 sec)
Heartbeat CPU 0 instructions: 360000003 cycles: 117943307 heartbeat IPC: 2.917 cumulative IPC: 2.944 (Simulation time: 00 hr 23 min 04 sec)
Heartbeat CPU 0 instructions: 370000004 cycles: 121369699 heartbeat IPC: 2.919 cumulative IPC: 2.943 (Simulation time: 00 hr 23 min 41 sec)
Heartbeat CPU 0 instructions: 380000003 cycles: 124795233 heartbeat IPC: 2.919 cumulative IPC: 2.942 (Simulation time: 00 hr 24 min 19 sec)
Heartbeat CPU 0 instructions: 390000000 cycles: 128216212 heartbeat IPC: 2.923 cumulative IPC: 2.942 (Simulation time: 00 hr 24 min 56 sec)
Heartbeat CPU 0 instructions: 400000002 cycles: 131643592 heartbeat IPC: 2.918 cumulative IPC: 2.941 (Simulation time: 00 hr 25 min 33 sec)
Heartbeat CPU 0 instructions: 410000003 cycles: 135071088 heartbeat IPC: 2.918 cumulative IPC: 2.94 (Simulation time: 00 hr 26 min 10 sec)
Heartbeat CPU 0 instructions: 420000001 cycles: 138498916 heartbeat IPC: 2.917 cumulative IPC: 2.94 (Simulation time: 00 hr 26 min 47 sec)
Heartbeat CPU 0 instructions: 430000001 cycles: 141927666 heartbeat IPC: 2.917 cumulative IPC: 2.939 (Simulation time: 00 hr 27 min 24 sec)
Heartbeat CPU 0 instructions: 440000002 cycles: 145352226 heartbeat IPC: 2.92 cumulative IPC: 2.938 (Simulation time: 00 hr 28 min 01 sec)
Heartbeat CPU 0 instructions: 450000001 cycles: 148122923 heartbeat IPC: 3.609 cumulative IPC: 2.952 (Simulation time: 00 hr 28 min 37 sec)
Heartbeat CPU 0 instructions: 460000002 cycles: 150856241 heartbeat IPC: 3.659 cumulative IPC: 2.966 (Simulation time: 00 hr 29 min 15 sec)
Heartbeat CPU 0 instructions: 470000004 cycles: 154279551 heartbeat IPC: 2.921 cumulative IPC: 2.965 (Simulation time: 00 hr 29 min 52 sec)
Heartbeat CPU 0 instructions: 480000000 cycles: 157707778 heartbeat IPC: 2.917 cumulative IPC: 2.964 (Simulation time: 00 hr 30 min 28 sec)
Heartbeat CPU 0 instructions: 490000000 cycles: 161133153 heartbeat IPC: 2.919 cumulative IPC: 2.963 (Simulation time: 00 hr 31 min 05 sec)
Heartbeat CPU 0 instructions: 500000002 cycles: 164559915 heartbeat IPC: 2.918 cumulative IPC: 2.962 (Simulation time: 00 hr 31 min 41 sec)
Heartbeat CPU 0 instructions: 510000001 cycles: 167988848 heartbeat IPC: 2.916 cumulative IPC: 2.961 (Simulation time: 00 hr 32 min 17 sec)
Heartbeat CPU 0 instructions: 520000003 cycles: 171414179 heartbeat IPC: 2.919 cumulative IPC: 2.96 (Simulation time: 00 hr 32 min 53 sec)
Heartbeat CPU 0 instructions: 530000002 cycles: 174838049 heartbeat IPC: 2.921 cumulative IPC: 2.959 (Simulation time: 00 hr 33 min 29 sec)
Heartbeat CPU 0 instructions: 540000000 cycles: 178266748 heartbeat IPC: 2.917 cumulative IPC: 2.958 (Simulation time: 00 hr 34 min 04 sec)
Heartbeat CPU 0 instructions: 550000000 cycles: 181692989 heartbeat IPC: 2.919 cumulative IPC: 2.957 (Simulation time: 00 hr 34 min 39 sec)
Heartbeat CPU 0 instructions: 560000001 cycles: 185117738 heartbeat IPC: 2.92 cumulative IPC: 2.957 (Simulation time: 00 hr 35 min 13 sec)
Heartbeat CPU 0 instructions: 570000001 cycles: 188543220 heartbeat IPC: 2.919 cumulative IPC: 2.956 (Simulation time: 00 hr 35 min 48 sec)
Heartbeat CPU 0 instructions: 580000000 cycles: 191973009 heartbeat IPC: 2.916 cumulative IPC: 2.955 (Simulation time: 00 hr 36 min 22 sec)
Heartbeat CPU 0 instructions: 590000003 cycles: 195399394 heartbeat IPC: 2.919 cumulative IPC: 2.955 (Simulation time: 00 hr 36 min 56 sec)
*** Reached end of trace: (0, "traces/l1l2cache.champsimtrace")
Heartbeat CPU 0 instructions: 600000001 cycles: 198827530 heartbeat IPC: 2.917 cumulative IPC: 2.954 (Simulation time: 00 hr 37 min 28 sec)
Heartbeat CPU 0 instructions: 610000000 cycles: 207520626 heartbeat IPC: 1.15 cumulative IPC: 2.873 (Simulation time: 00 hr 38 min 45 sec)
Heartbeat CPU 0 instructions: 620000004 cycles: 210283971 heartbeat IPC: 3.619 cumulative IPC: 2.884 (Simulation time: 00 hr 39 min 27 sec)
Heartbeat CPU 0 instructions: 630000004 cycles: 213707047 heartbeat IPC: 2.921 cumulative IPC: 2.884 (Simulation time: 00 hr 40 min 08 sec)
Heartbeat CPU 0 instructions: 640000000 cycles: 217131975 heartbeat IPC: 2.92 cumulative IPC: 2.885 (Simulation time: 00 hr 40 min 48 sec)
Heartbeat CPU 0 instructions: 650000004 cycles: 220561379 heartbeat IPC: 2.916 cumulative IPC: 2.886 (Simulation time: 00 hr 41 min 27 sec)
Simulation finished CPU 0 instructions: 600000004 cycles: 207930105 cumulative IPC: 2.886 (Simulation time: 00 hr 41 min 27 sec)
Simulation complete CPU 0 instructions: 600000004 cycles: 207930105 cumulative IPC: 2.886 (Simulation time: 00 hr 41 min 27 sec)

ChampSim completed all CPUs

=== Simulation ===
CPU 0 runs traces/l1l2cache.champsimtrace
Region of Interest Statistics

CPU 0 cumulative IPC: 2.886 instructions: 600000004 cycles: 207930105
CPU 0 Branch Prediction Accuracy: 93.04% MPKI: 5.913 Average ROB Occupancy at Mispredict: 67.87
Branch type MPKI
BRANCH_DIRECT_JUMP: 9.5e-05
BRANCH_INDIRECT: 0.000282
BRANCH_CONDITIONAL: 5.91
BRANCH_DIRECT_CALL: 3.33e-06
BRANCH_INDIRECT_CALL: 4.83e-05
BRANCH_RETURN: 3.33e-05

LLC TOTAL        ACCESS:     408819 HIT:     362624 MISS:      46195
LLC LOAD         ACCESS:      59445 HIT:      51218 MISS:       8227
LLC RFO          ACCESS:      99913 HIT:      66927 MISS:      32986
LLC PREFETCH     ACCESS:     149151 HIT:     144763 MISS:       4388
LLC WRITE        ACCESS:     100305 HIT:      99716 MISS:        589
LLC TRANSLATION  ACCESS:          5 HIT:          0 MISS:          5
LLC PREFETCH REQUESTED:     149151 ISSUED:     149151 USEFUL:       2247 USELESS:        154
LLC AVERAGE MISS LATENCY: 838.9 cycles
cpu0_DTLB TOTAL        ACCESS:   82326262 HIT:   82315372 MISS:      10890
cpu0_DTLB LOAD         ACCESS:   82326262 HIT:   82315372 MISS:      10890
cpu0_DTLB RFO          ACCESS:          0 HIT:          0 MISS:          0
cpu0_DTLB PREFETCH     ACCESS:          0 HIT:          0 MISS:          0
cpu0_DTLB WRITE        ACCESS:          0 HIT:          0 MISS:          0
cpu0_DTLB TRANSLATION  ACCESS:          0 HIT:          0 MISS:          0
cpu0_DTLB PREFETCH REQUESTED:          0 ISSUED:          0 USEFUL:          0 USELESS:          0
cpu0_DTLB AVERAGE MISS LATENCY: 5.839 cycles
cpu0_ITLB TOTAL        ACCESS:       5576 HIT:       5359 MISS:        217
cpu0_ITLB LOAD         ACCESS:       5576 HIT:       5359 MISS:        217
cpu0_ITLB RFO          ACCESS:          0 HIT:          0 MISS:          0
cpu0_ITLB PREFETCH     ACCESS:          0 HIT:          0 MISS:          0
cpu0_ITLB WRITE        ACCESS:          0 HIT:          0 MISS:          0
cpu0_ITLB TRANSLATION  ACCESS:          0 HIT:          0 MISS:          0
cpu0_ITLB PREFETCH REQUESTED:          0 ISSUED:          0 USEFUL:          0 USELESS:          0
cpu0_ITLB AVERAGE MISS LATENCY: 6.502 cycles
cpu0_L1D TOTAL        ACCESS:  104575299 HIT:  103184687 MISS:    1390612
cpu0_L1D LOAD         ACCESS:   45338127 HIT:   44988065 MISS:     350062
cpu0_L1D RFO          ACCESS:          0 HIT:          0 MISS:          0
cpu0_L1D PREFETCH     ACCESS:          0 HIT:          0 MISS:          0
cpu0_L1D WRITE        ACCESS:   59236914 HIT:   58196369 MISS:    1040545
cpu0_L1D TRANSLATION  ACCESS:        258 HIT:        253 MISS:          5
cpu0_L1D PREFETCH REQUESTED:          0 ISSUED:          0 USEFUL:          0 USELESS:          0
cpu0_L1D AVERAGE MISS LATENCY: 25.15 cycles
cpu0_L1I TOTAL        ACCESS:       6340 HIT:       4046 MISS:       2294
cpu0_L1I LOAD         ACCESS:       6340 HIT:       4046 MISS:       2294
cpu0_L1I RFO          ACCESS:          0 HIT:          0 MISS:          0
cpu0_L1I PREFETCH     ACCESS:          0 HIT:          0 MISS:          0
cpu0_L1I WRITE        ACCESS:          0 HIT:          0 MISS:          0
cpu0_L1I TRANSLATION  ACCESS:          0 HIT:          0 MISS:          0
cpu0_L1I PREFETCH REQUESTED:          0 ISSUED:          0 USEFUL:          0 USELESS:          0
cpu0_L1I AVERAGE MISS LATENCY: 609.6 cycles
cpu0_L2C TOTAL        ACCESS:     265730 HIT:     106343 MISS:     159387
cpu0_L2C LOAD         ACCESS:      63734 HIT:       4289 MISS:      59445
cpu0_L2C RFO          ACCESS:     100730 HIT:        817 MISS:      99913
cpu0_L2C PREFETCH     ACCESS:          0 HIT:          0 MISS:          0
cpu0_L2C WRITE        ACCESS:     101261 HIT:     101237 MISS:         24
cpu0_L2C TRANSLATION  ACCESS:          5 HIT:          0 MISS:          5
cpu0_L2C PREFETCH REQUESTED:          0 ISSUED:          0 USEFUL:          0 USELESS:          0
cpu0_L2C AVERAGE MISS LATENCY: 248.4 cycles
cpu0_STLB TOTAL        ACCESS:       3913 HIT:       3656 MISS:        257
cpu0_STLB LOAD         ACCESS:       3913 HIT:       3656 MISS:        257
cpu0_STLB RFO          ACCESS:          0 HIT:          0 MISS:          0
cpu0_STLB PREFETCH     ACCESS:          0 HIT:          0 MISS:          0
cpu0_STLB WRITE        ACCESS:          0 HIT:          0 MISS:          0
cpu0_STLB TRANSLATION  ACCESS:          0 HIT:          0 MISS:          0
cpu0_STLB PREFETCH REQUESTED:          0 ISSUED:          0 USEFUL:          0 USELESS:          0
cpu0_STLB AVERAGE MISS LATENCY: 218.4 cycles

DRAM Statistics

Channel 0 RQ ROW_BUFFER_HIT:      20566
  ROW_BUFFER_MISS:      22404
 AVG DBUS CONGESTED CYCLE: 3.977
WQ ROW_BUFFER_HIT: Channel 0 
  ROW_BUFFER_MISS:       2210
  FULL:      20927
