WARNING: physical memory size is smaller than virtual memory size.

*** ChampSim Multicore Out-of-Order Simulator ***
Warmup Instructions: 50000000
Simulation Instructions: 600000000
Number of CPUs: 1
Page size: 4096

CPU 0 Tage branch predictor
Off-chip DRAM Size: 4 GiB Channels: 1 Width: 64-bit Data Race: 3200 MT/s
Heartbeat CPU 0 instructions: 10000004 cycles: 2777663 heartbeat IPC: 3.6 cumulative IPC: 3.6 (Simulation time: 00 hr 00 min 47 sec)
Heartbeat CPU 0 instructions: 20000001 cycles: 5634805 heartbeat IPC: 3.5 cumulative IPC: 3.549 (Simulation time: 00 hr 01 min 33 sec)
Heartbeat CPU 0 instructions: 30000000 cycles: 8491948 heartbeat IPC: 3.5 cumulative IPC: 3.533 (Simulation time: 00 hr 02 min 19 sec)
Heartbeat CPU 0 instructions: 40000003 cycles: 11120601 heartbeat IPC: 3.804 cumulative IPC: 3.597 (Simulation time: 00 hr 03 min 05 sec)
Heartbeat CPU 0 instructions: 50000003 cycles: 13620601 heartbeat IPC: 4 cumulative IPC: 3.671 (Simulation time: 00 hr 03 min 51 sec)
Warmup finished CPU 0 instructions: 50000003 cycles: 13620602 cumulative IPC: 3.671 (Simulation time: 00 hr 03 min 51 sec)
Warmup complete CPU 0 instructions: 50000003 cycles: 13620602 cumulative IPC: 3.671 (Simulation time: 00 hr 03 min 51 sec)
Heartbeat CPU 0 instructions: 60000002 cycles: 16120603 heartbeat IPC: 4 cumulative IPC: 4 (Simulation time: 00 hr 04 min 43 sec)
Heartbeat CPU 0 instructions: 70000001 cycles: 18620602 heartbeat IPC: 4 cumulative IPC: 4 (Simulation time: 00 hr 05 min 34 sec)
Heartbeat CPU 0 instructions: 80000000 cycles: 21120601 heartbeat IPC: 4 cumulative IPC: 4 (Simulation time: 00 hr 06 min 32 sec)
Heartbeat CPU 0 instructions: 90000003 cycles: 23621412 heartbeat IPC: 3.999 cumulative IPC: 4 (Simulation time: 00 hr 07 min 21 sec)
Heartbeat CPU 0 instructions: 100000003 cycles: 26121413 heartbeat IPC: 4 cumulative IPC: 4 (Simulation time: 00 hr 08 min 21 sec)
Heartbeat CPU 0 instructions: 110000004 cycles: 28621414 heartbeat IPC: 4 cumulative IPC: 4 (Simulation time: 00 hr 09 min 54 sec)
Heartbeat CPU 0 instructions: 120000003 cycles: 31121413 heartbeat IPC: 4 cumulative IPC: 4 (Simulation time: 00 hr 11 min 10 sec)
Heartbeat CPU 0 instructions: 130000002 cycles: 33621412 heartbeat IPC: 4 cumulative IPC: 4 (Simulation time: 00 hr 12 min 20 sec)
Heartbeat CPU 0 instructions: 140000004 cycles: 36122230 heartbeat IPC: 3.999 cumulative IPC: 4 (Simulation time: 00 hr 13 min 28 sec)
Heartbeat CPU 0 instructions: 150000000 cycles: 38622230 heartbeat IPC: 4 cumulative IPC: 4 (Simulation time: 00 hr 14 min 32 sec)
Heartbeat CPU 0 instructions: 160000001 cycles: 41122231 heartbeat IPC: 4 cumulative IPC: 4 (Simulation time: 00 hr 15 min 32 sec)
Heartbeat CPU 0 instructions: 170000004 cycles: 43622231 heartbeat IPC: 4 cumulative IPC: 4 (Simulation time: 00 hr 16 min 35 sec)
Heartbeat CPU 0 instructions: 180000000 cycles: 46122538 heartbeat IPC: 4 cumulative IPC: 4 (Simulation time: 00 hr 17 min 36 sec)
Heartbeat CPU 0 instructions: 190000004 cycles: 48622539 heartbeat IPC: 4 cumulative IPC: 4 (Simulation time: 00 hr 18 min 37 sec)
Heartbeat CPU 0 instructions: 200000002 cycles: 51122539 heartbeat IPC: 4 cumulative IPC: 4 (Simulation time: 00 hr 19 min 38 sec)
Heartbeat CPU 0 instructions: 210000003 cycles: 53622540 heartbeat IPC: 4 cumulative IPC: 4 (Simulation time: 00 hr 20 min 36 sec)
Heartbeat CPU 0 instructions: 220000001 cycles: 56122539 heartbeat IPC: 4 cumulative IPC: 4 (Simulation time: 00 hr 21 min 35 sec)
Heartbeat CPU 0 instructions: 230000002 cycles: 58622845 heartbeat IPC: 4 cumulative IPC: 4 (Simulation time: 00 hr 22 min 36 sec)
Heartbeat CPU 0 instructions: 240000003 cycles: 61122845 heartbeat IPC: 4 cumulative IPC: 4 (Simulation time: 00 hr 23 min 36 sec)
Heartbeat CPU 0 instructions: 250000004 cycles: 63622846 heartbeat IPC: 4 cumulative IPC: 4 (Simulation time: 00 hr 24 min 34 sec)
Heartbeat CPU 0 instructions: 260000000 cycles: 66122846 heartbeat IPC: 4 cumulative IPC: 4 (Simulation time: 00 hr 25 min 33 sec)
Heartbeat CPU 0 instructions: 270000003 cycles: 68623153 heartbeat IPC: 4 cumulative IPC: 4 (Simulation time: 00 hr 26 min 32 sec)
Heartbeat CPU 0 instructions: 280000001 cycles: 71123152 heartbeat IPC: 4 cumulative IPC: 4 (Simulation time: 00 hr 27 min 28 sec)
Heartbeat CPU 0 instructions: 290000000 cycles: 73623152 heartbeat IPC: 4 cumulative IPC: 4 (Simulation time: 00 hr 28 min 23 sec)
Heartbeat CPU 0 instructions: 300000001 cycles: 76123153 heartbeat IPC: 4 cumulative IPC: 4 (Simulation time: 00 hr 29 min 21 sec)
Heartbeat CPU 0 instructions: 310000000 cycles: 78623153 heartbeat IPC: 4 cumulative IPC: 4 (Simulation time: 00 hr 30 min 19 sec)
Heartbeat CPU 0 instructions: 320000000 cycles: 81123460 heartbeat IPC: 4 cumulative IPC: 4 (Simulation time: 00 hr 31 min 17 sec)
Heartbeat CPU 0 instructions: 330000000 cycles: 83623458 heartbeat IPC: 4 cumulative IPC: 4 (Simulation time: 00 hr 32 min 14 sec)
Heartbeat CPU 0 instructions: 340000002 cycles: 86123459 heartbeat IPC: 4 cumulative IPC: 4 (Simulation time: 00 hr 33 min 11 sec)
Heartbeat CPU 0 instructions: 350000003 cycles: 88623460 heartbeat IPC: 4 cumulative IPC: 4 (Simulation time: 00 hr 34 min 04 sec)
Heartbeat CPU 0 instructions: 360000001 cycles: 91123767 heartbeat IPC: 4 cumulative IPC: 4 (Simulation time: 00 hr 34 min 54 sec)
Heartbeat CPU 0 instructions: 370000002 cycles: 93623768 heartbeat IPC: 4 cumulative IPC: 4 (Simulation time: 00 hr 35 min 47 sec)
Heartbeat CPU 0 instructions: 380000002 cycles: 96123767 heartbeat IPC: 4 cumulative IPC: 4 (Simulation time: 00 hr 36 min 42 sec)
Heartbeat CPU 0 instructions: 390000004 cycles: 98623768 heartbeat IPC: 4 cumulative IPC: 4 (Simulation time: 00 hr 37 min 33 sec)
Heartbeat CPU 0 instructions: 400000000 cycles: 101123768 heartbeat IPC: 4 cumulative IPC: 4 (Simulation time: 00 hr 38 min 23 sec)
Heartbeat CPU 0 instructions: 410000003 cycles: 103624568 heartbeat IPC: 3.999 cumulative IPC: 4 (Simulation time: 00 hr 39 min 13 sec)
Heartbeat CPU 0 instructions: 420000004 cycles: 117003707 heartbeat IPC: 0.7474 cumulative IPC: 3.579 (Simulation time: 00 hr 41 min 33 sec)
Heartbeat CPU 0 instructions: 430000003 cycles: 145118423 heartbeat IPC: 0.3557 cumulative IPC: 2.89 (Simulation time: 00 hr 45 min 55 sec)
Heartbeat CPU 0 instructions: 440000004 cycles: 172209164 heartbeat IPC: 0.3691 cumulative IPC: 2.459 (Simulation time: 00 hr 50 min 03 sec)
Heartbeat CPU 0 instructions: 450000000 cycles: 199372475 heartbeat IPC: 0.3681 cumulative IPC: 2.153 (Simulation time: 00 hr 54 min 16 sec)
Heartbeat CPU 0 instructions: 460000001 cycles: 226558674 heartbeat IPC: 0.3678 cumulative IPC: 1.925 (Simulation time: 00 hr 58 min 08 sec)
Heartbeat CPU 0 instructions: 470000003 cycles: 253735668 heartbeat IPC: 0.368 cumulative IPC: 1.749 (Simulation time: 01 hr 01 min 15 sec)
Heartbeat CPU 0 instructions: 480000004 cycles: 280750951 heartbeat IPC: 0.3702 cumulative IPC: 1.61 (Simulation time: 01 hr 04 min 30 sec)
Heartbeat CPU 0 instructions: 490000000 cycles: 307876575 heartbeat IPC: 0.3687 cumulative IPC: 1.495 (Simulation time: 01 hr 08 min 01 sec)
Heartbeat CPU 0 instructions: 500000001 cycles: 335111134 heartbeat IPC: 0.3672 cumulative IPC: 1.4 (Simulation time: 01 hr 11 min 25 sec)
Heartbeat CPU 0 instructions: 510000002 cycles: 362138076 heartbeat IPC: 0.37 cumulative IPC: 1.32 (Simulation time: 01 hr 14 min 35 sec)
Heartbeat CPU 0 instructions: 520000003 cycles: 389282488 heartbeat IPC: 0.3684 cumulative IPC: 1.251 (Simulation time: 01 hr 17 min 52 sec)
Heartbeat CPU 0 instructions: 530000004 cycles: 416295293 heartbeat IPC: 0.3702 cumulative IPC: 1.192 (Simulation time: 01 hr 22 min 12 sec)
Heartbeat CPU 0 instructions: 540000000 cycles: 443371905 heartbeat IPC: 0.3693 cumulative IPC: 1.14 (Simulation time: 01 hr 25 min 48 sec)
Heartbeat CPU 0 instructions: 550000001 cycles: 470438536 heartbeat IPC: 0.3695 cumulative IPC: 1.095 (Simulation time: 01 hr 29 min 04 sec)
Heartbeat CPU 0 instructions: 560000002 cycles: 497512452 heartbeat IPC: 0.3694 cumulative IPC: 1.054 (Simulation time: 01 hr 32 min 10 sec)
Heartbeat CPU 0 instructions: 570000002 cycles: 524684035 heartbeat IPC: 0.368 cumulative IPC: 1.017 (Simulation time: 01 hr 34 min 23 sec)
Heartbeat CPU 0 instructions: 580000000 cycles: 551756378 heartbeat IPC: 0.3694 cumulative IPC: 0.9849 (Simulation time: 01 hr 36 min 19 sec)
Heartbeat CPU 0 instructions: 590000004 cycles: 578872537 heartbeat IPC: 0.3688 cumulative IPC: 0.9553 (Simulation time: 01 hr 38 min 03 sec)
*** Reached end of trace: (0, "traces/l1l2l3cache.champsimtrace")
Heartbeat CPU 0 instructions: 600000001 cycles: 605949666 heartbeat IPC: 0.3693 cumulative IPC: 0.9285 (Simulation time: 01 hr 39 min 32 sec)
Heartbeat CPU 0 instructions: 610000004 cycles: 619004474 heartbeat IPC: 0.766 cumulative IPC: 0.925 (Simulation time: 01 hr 40 min 13 sec)
Heartbeat CPU 0 instructions: 620000003 cycles: 633653005 heartbeat IPC: 0.6827 cumulative IPC: 0.9193 (Simulation time: 01 hr 40 min 57 sec)
Heartbeat CPU 0 instructions: 630000000 cycles: 648212999 heartbeat IPC: 0.6868 cumulative IPC: 0.914 (Simulation time: 01 hr 41 min 42 sec)
Heartbeat CPU 0 instructions: 640000000 cycles: 655138251 heartbeat IPC: 1.444 cumulative IPC: 0.9197 (Simulation time: 01 hr 42 min 08 sec)
Heartbeat CPU 0 instructions: 650000001 cycles: 657638252 heartbeat IPC: 4 cumulative IPC: 0.9317 (Simulation time: 01 hr 42 min 23 sec)
Simulation finished CPU 0 instructions: 600000003 cycles: 644017652 cumulative IPC: 0.9317 (Simulation time: 01 hr 42 min 23 sec)
Simulation complete CPU 0 instructions: 600000003 cycles: 644017652 cumulative IPC: 0.9317 (Simulation time: 01 hr 42 min 23 sec)

ChampSim completed all CPUs

=== Simulation ===
CPU 0 runs traces/l1l2l3cache.champsimtrace
Region of Interest Statistics

CPU 0 cumulative IPC: 0.9317 instructions: 600000003 cycles: 644017652
CPU 0 Branch Prediction Accuracy: 99.99% MPKI: 0.01094 Average ROB Occupancy at Mispredict: 172.9
Branch type MPKI
BRANCH_DIRECT_JUMP: 8.5e-05
BRANCH_INDIRECT: 0.000237
BRANCH_CONDITIONAL: 0.0105
BRANCH_DIRECT_CALL: 5e-06
BRANCH_INDIRECT_CALL: 4.67e-05
BRANCH_RETURN: 3.67e-05

LLC TOTAL        ACCESS:    5043908 HIT:     664450 MISS:    4379458
LLC LOAD         ACCESS:    1954447 HIT:     222407 MISS:    1732040
LLC RFO          ACCESS:     561709 HIT:      23875 MISS:     537834
LLC PREFETCH     ACCESS:    1954447 HIT:     224270 MISS:    1730177
LLC WRITE        ACCESS:     562061 HIT:     184355 MISS:     377706
LLC TRANSLATION  ACCESS:      11244 HIT:       9543 MISS:       1701
LLC PREFETCH REQUESTED:    1954447 ISSUED:    1954447 USEFUL:      17309 USELESS:      28030
LLC AVERAGE MISS LATENCY: 935.9 cycles
cpu0_DTLB TOTAL        ACCESS:  123839696 HIT:  121825255 MISS:    2014441
cpu0_DTLB LOAD         ACCESS:  123839696 HIT:  121825255 MISS:    2014441
cpu0_DTLB RFO          ACCESS:          0 HIT:          0 MISS:          0
cpu0_DTLB PREFETCH     ACCESS:          0 HIT:          0 MISS:          0
cpu0_DTLB WRITE        ACCESS:          0 HIT:          0 MISS:          0
cpu0_DTLB TRANSLATION  ACCESS:          0 HIT:          0 MISS:          0
cpu0_DTLB PREFETCH REQUESTED:          0 ISSUED:          0 USEFUL:          0 USELESS:          0
cpu0_DTLB AVERAGE MISS LATENCY: 17.79 cycles
cpu0_ITLB TOTAL        ACCESS:       5098 HIT:       4857 MISS:        241
cpu0_ITLB LOAD         ACCESS:       5098 HIT:       4857 MISS:        241
cpu0_ITLB RFO          ACCESS:          0 HIT:          0 MISS:          0
cpu0_ITLB PREFETCH     ACCESS:          0 HIT:          0 MISS:          0
cpu0_ITLB WRITE        ACCESS:          0 HIT:          0 MISS:          0
cpu0_ITLB TRANSLATION  ACCESS:          0 HIT:          0 MISS:          0
cpu0_ITLB PREFETCH REQUESTED:          0 ISSUED:          0 USEFUL:          0 USELESS:          0
cpu0_ITLB AVERAGE MISS LATENCY: 276.4 cycles
cpu0_L1D TOTAL        ACCESS:  171513035 HIT:  159949200 MISS:   11563835
cpu0_L1D LOAD         ACCESS:   63540933 HIT:   61491273 MISS:    2049660
cpu0_L1D RFO          ACCESS:          0 HIT:          0 MISS:          0
cpu0_L1D PREFETCH     ACCESS:          0 HIT:          0 MISS:          0
cpu0_L1D WRITE        ACCESS:  106666594 HIT:   97898664 MISS:    8767930
cpu0_L1D TRANSLATION  ACCESS:    1305508 HIT:     559263 MISS:     746245
cpu0_L1D PREFETCH REQUESTED:          0 ISSUED:          0 USEFUL:          0 USELESS:          0
cpu0_L1D AVERAGE MISS LATENCY: 187.6 cycles
cpu0_L1I TOTAL        ACCESS:       5878 HIT:       3310 MISS:       2568
cpu0_L1I LOAD         ACCESS:       5878 HIT:       3310 MISS:       2568
cpu0_L1I RFO          ACCESS:          0 HIT:          0 MISS:          0
cpu0_L1I PREFETCH     ACCESS:          0 HIT:          0 MISS:          0
cpu0_L1I WRITE        ACCESS:          0 HIT:          0 MISS:          0
cpu0_L1I TRANSLATION  ACCESS:          0 HIT:          0 MISS:          0
cpu0_L1I PREFETCH REQUESTED:          0 ISSUED:          0 USEFUL:          0 USELESS:          0
cpu0_L1I AVERAGE MISS LATENCY: 319.8 cycles
cpu0_L2C TOTAL        ACCESS:    3905896 HIT:    1378480 MISS:    2527416
cpu0_L2C LOAD         ACCESS:    2009352 HIT:      54905 MISS:    1954447
cpu0_L2C RFO          ACCESS:     574541 HIT:      12832 MISS:     561709
cpu0_L2C PREFETCH     ACCESS:          0 HIT:          0 MISS:          0
cpu0_L2C WRITE        ACCESS:     575771 HIT:     575755 MISS:         16
cpu0_L2C TRANSLATION  ACCESS:     746232 HIT:     734988 MISS:      11244
cpu0_L2C PREFETCH REQUESTED:          0 ISSUED:          0 USEFUL:          0 USELESS:          0
cpu0_L2C AVERAGE MISS LATENCY: 880.9 cycles
cpu0_STLB TOTAL        ACCESS:    1982618 HIT:     677118 MISS:    1305500
cpu0_STLB LOAD         ACCESS:    1982618 HIT:     677118 MISS:    1305500
cpu0_STLB RFO          ACCESS:          0 HIT:          0 MISS:          0
cpu0_STLB PREFETCH     ACCESS:          0 HIT:          0 MISS:          0
cpu0_STLB WRITE        ACCESS:          0 HIT:          0 MISS:          0
cpu0_STLB TRANSLATION  ACCESS:          0 HIT:          0 MISS:          0
cpu0_STLB PREFETCH REQUESTED:          0 ISSUED:          0 USEFUL:          0 USELESS:          0
cpu0_STLB AVERAGE MISS LATENCY: 14.41 cycles

DRAM Statistics

Channel 0 RQ ROW_BUFFER_HIT:     154899
  ROW_BUFFER_MISS:    3842912
 AVG DBUS CONGESTED CYCLE: 3.97
WQ ROW_BUFFER_HIT: Channel 0 
  ROW_BUFFER_MISS:     152485
  FULL:     406986
