WARNING: physical memory size is smaller than virtual memory size.

*** ChampSim Multicore Out-of-Order Simulator ***
Warmup Instructions: 50000000
Simulation Instructions: 600000000
Number of CPUs: 1
Page size: 4096

CPU 0 Tage branch predictor
Off-chip DRAM Size: 4 GiB Channels: 1 Width: 64-bit Data Race: 3200 MT/s
Heartbeat CPU 0 instructions: 10000004 cycles: 2777663 heartbeat IPC: 3.6 cumulative IPC: 3.6 (Simulation time: 00 hr 00 min 26 sec)
Heartbeat CPU 0 instructions: 20000001 cycles: 5634805 heartbeat IPC: 3.5 cumulative IPC: 3.549 (Simulation time: 00 hr 00 min 56 sec)
Heartbeat CPU 0 instructions: 30000000 cycles: 8491948 heartbeat IPC: 3.5 cumulative IPC: 3.533 (Simulation time: 00 hr 01 min 28 sec)
Heartbeat CPU 0 instructions: 40000003 cycles: 11120601 heartbeat IPC: 3.804 cumulative IPC: 3.597 (Simulation time: 00 hr 02 min 06 sec)
Heartbeat CPU 0 instructions: 50000003 cycles: 13620601 heartbeat IPC: 4 cumulative IPC: 3.671 (Simulation time: 00 hr 02 min 44 sec)
Warmup finished CPU 0 instructions: 50000003 cycles: 13620602 cumulative IPC: 3.671 (Simulation time: 00 hr 02 min 44 sec)
Warmup complete CPU 0 instructions: 50000003 cycles: 13620602 cumulative IPC: 3.671 (Simulation time: 00 hr 02 min 44 sec)
Heartbeat CPU 0 instructions: 60000002 cycles: 16120603 heartbeat IPC: 4 cumulative IPC: 4 (Simulation time: 00 hr 03 min 34 sec)
Heartbeat CPU 0 instructions: 70000001 cycles: 18620602 heartbeat IPC: 4 cumulative IPC: 4 (Simulation time: 00 hr 04 min 30 sec)
Heartbeat CPU 0 instructions: 80000000 cycles: 21120601 heartbeat IPC: 4 cumulative IPC: 4 (Simulation time: 00 hr 05 min 29 sec)
Heartbeat CPU 0 instructions: 90000003 cycles: 23620910 heartbeat IPC: 4 cumulative IPC: 4 (Simulation time: 00 hr 06 min 34 sec)
Heartbeat CPU 0 instructions: 100000003 cycles: 26120911 heartbeat IPC: 4 cumulative IPC: 4 (Simulation time: 00 hr 07 min 48 sec)
Heartbeat CPU 0 instructions: 110000004 cycles: 28620912 heartbeat IPC: 4 cumulative IPC: 4 (Simulation time: 00 hr 09 min 08 sec)
Heartbeat CPU 0 instructions: 120000003 cycles: 31120911 heartbeat IPC: 4 cumulative IPC: 4 (Simulation time: 00 hr 10 min 22 sec)
Heartbeat CPU 0 instructions: 130000002 cycles: 33620910 heartbeat IPC: 4 cumulative IPC: 4 (Simulation time: 00 hr 11 min 38 sec)
Heartbeat CPU 0 instructions: 140000004 cycles: 36121217 heartbeat IPC: 4 cumulative IPC: 4 (Simulation time: 00 hr 12 min 51 sec)
Heartbeat CPU 0 instructions: 150000000 cycles: 38621217 heartbeat IPC: 4 cumulative IPC: 4 (Simulation time: 00 hr 13 min 59 sec)
Heartbeat CPU 0 instructions: 160000001 cycles: 41121218 heartbeat IPC: 4 cumulative IPC: 4 (Simulation time: 00 hr 15 min 04 sec)
Heartbeat CPU 0 instructions: 170000004 cycles: 43621218 heartbeat IPC: 4 cumulative IPC: 4 (Simulation time: 00 hr 16 min 12 sec)
Heartbeat CPU 0 instructions: 180000000 cycles: 46122046 heartbeat IPC: 3.999 cumulative IPC: 4 (Simulation time: 00 hr 17 min 21 sec)
Heartbeat CPU 0 instructions: 190000004 cycles: 48622047 heartbeat IPC: 4 cumulative IPC: 4 (Simulation time: 00 hr 18 min 28 sec)
Heartbeat CPU 0 instructions: 200000002 cycles: 51122047 heartbeat IPC: 4 cumulative IPC: 4 (Simulation time: 00 hr 19 min 35 sec)
Heartbeat CPU 0 instructions: 210000003 cycles: 53622048 heartbeat IPC: 4 cumulative IPC: 4 (Simulation time: 00 hr 20 min 49 sec)
Heartbeat CPU 0 instructions: 220000001 cycles: 56122047 heartbeat IPC: 4 cumulative IPC: 4 (Simulation time: 00 hr 22 min 05 sec)
Heartbeat CPU 0 instructions: 230000002 cycles: 58622353 heartbeat IPC: 4 cumulative IPC: 4 (Simulation time: 00 hr 23 min 18 sec)
Heartbeat CPU 0 instructions: 240000003 cycles: 61122353 heartbeat IPC: 4 cumulative IPC: 4 (Simulation time: 00 hr 24 min 29 sec)
Heartbeat CPU 0 instructions: 250000004 cycles: 63622354 heartbeat IPC: 4 cumulative IPC: 4 (Simulation time: 00 hr 25 min 45 sec)
Heartbeat CPU 0 instructions: 260000000 cycles: 66122354 heartbeat IPC: 4 cumulative IPC: 4 (Simulation time: 00 hr 26 min 59 sec)
Heartbeat CPU 0 instructions: 270000003 cycles: 68623183 heartbeat IPC: 3.999 cumulative IPC: 4 (Simulation time: 00 hr 28 min 14 sec)
Heartbeat CPU 0 instructions: 280000001 cycles: 71123182 heartbeat IPC: 4 cumulative IPC: 4 (Simulation time: 00 hr 29 min 26 sec)
Heartbeat CPU 0 instructions: 290000000 cycles: 73623182 heartbeat IPC: 4 cumulative IPC: 4 (Simulation time: 00 hr 30 min 40 sec)
Heartbeat CPU 0 instructions: 300000001 cycles: 76123183 heartbeat IPC: 4 cumulative IPC: 4 (Simulation time: 00 hr 31 min 52 sec)
Heartbeat CPU 0 instructions: 310000000 cycles: 78623183 heartbeat IPC: 4 cumulative IPC: 4 (Simulation time: 00 hr 33 min 01 sec)
Heartbeat CPU 0 instructions: 320000000 cycles: 81124165 heartbeat IPC: 3.998 cumulative IPC: 4 (Simulation time: 00 hr 34 min 08 sec)
Heartbeat CPU 0 instructions: 330000000 cycles: 83624163 heartbeat IPC: 4 cumulative IPC: 4 (Simulation time: 00 hr 35 min 14 sec)
Heartbeat CPU 0 instructions: 340000002 cycles: 86124164 heartbeat IPC: 4 cumulative IPC: 4 (Simulation time: 00 hr 36 min 25 sec)
Heartbeat CPU 0 instructions: 350000003 cycles: 88624165 heartbeat IPC: 4 cumulative IPC: 4 (Simulation time: 00 hr 37 min 35 sec)
Heartbeat CPU 0 instructions: 360000001 cycles: 91124472 heartbeat IPC: 4 cumulative IPC: 4 (Simulation time: 00 hr 38 min 51 sec)
Heartbeat CPU 0 instructions: 370000002 cycles: 93624473 heartbeat IPC: 4 cumulative IPC: 4 (Simulation time: 00 hr 40 min 02 sec)
Heartbeat CPU 0 instructions: 380000002 cycles: 96124472 heartbeat IPC: 4 cumulative IPC: 4 (Simulation time: 00 hr 41 min 14 sec)
Heartbeat CPU 0 instructions: 390000004 cycles: 98624473 heartbeat IPC: 4 cumulative IPC: 4 (Simulation time: 00 hr 42 min 24 sec)
Heartbeat CPU 0 instructions: 400000000 cycles: 101124473 heartbeat IPC: 4 cumulative IPC: 4 (Simulation time: 00 hr 43 min 40 sec)
Heartbeat CPU 0 instructions: 410000003 cycles: 103624779 heartbeat IPC: 4 cumulative IPC: 4 (Simulation time: 00 hr 44 min 51 sec)
Heartbeat CPU 0 instructions: 420000003 cycles: 111888833 heartbeat IPC: 1.21 cumulative IPC: 3.765 (Simulation time: 00 hr 47 min 13 sec)
Heartbeat CPU 0 instructions: 430000003 cycles: 133933001 heartbeat IPC: 0.4536 cumulative IPC: 3.158 (Simulation time: 00 hr 52 min 07 sec)
Heartbeat CPU 0 instructions: 440000004 cycles: 152781129 heartbeat IPC: 0.5306 cumulative IPC: 2.803 (Simulation time: 00 hr 56 min 24 sec)
Heartbeat CPU 0 instructions: 450000000 cycles: 171600522 heartbeat IPC: 0.5314 cumulative IPC: 2.532 (Simulation time: 01 hr 00 min 42 sec)
Heartbeat CPU 0 instructions: 460000002 cycles: 190420723 heartbeat IPC: 0.5313 cumulative IPC: 2.319 (Simulation time: 01 hr 05 min 10 sec)
Heartbeat CPU 0 instructions: 470000003 cycles: 209258729 heartbeat IPC: 0.5308 cumulative IPC: 2.147 (Simulation time: 01 hr 13 min 05 sec)
Heartbeat CPU 0 instructions: 480000003 cycles: 228054660 heartbeat IPC: 0.532 cumulative IPC: 2.005 (Simulation time: 01 hr 20 min 51 sec)
Heartbeat CPU 0 instructions: 490000004 cycles: 246827085 heartbeat IPC: 0.5327 cumulative IPC: 1.887 (Simulation time: 01 hr 29 min 06 sec)
Heartbeat CPU 0 instructions: 500000003 cycles: 265683947 heartbeat IPC: 0.5303 cumulative IPC: 1.785 (Simulation time: 01 hr 35 min 10 sec)
Heartbeat CPU 0 instructions: 510000002 cycles: 284454061 heartbeat IPC: 0.5328 cumulative IPC: 1.698 (Simulation time: 01 hr 44 min 43 sec)
Heartbeat CPU 0 instructions: 520000003 cycles: 303277759 heartbeat IPC: 0.5312 cumulative IPC: 1.623 (Simulation time: 01 hr 53 min 30 sec)
Heartbeat CPU 0 instructions: 530000003 cycles: 322050991 heartbeat IPC: 0.5327 cumulative IPC: 1.556 (Simulation time: 02 hr 02 min 25 sec)
Heartbeat CPU 0 instructions: 540000004 cycles: 340807180 heartbeat IPC: 0.5332 cumulative IPC: 1.498 (Simulation time: 02 hr 09 min 21 sec)
Heartbeat CPU 0 instructions: 550000000 cycles: 359620821 heartbeat IPC: 0.5315 cumulative IPC: 1.445 (Simulation time: 02 hr 18 min 07 sec)
Heartbeat CPU 0 instructions: 560000002 cycles: 378423381 heartbeat IPC: 0.5318 cumulative IPC: 1.398 (Simulation time: 02 hr 25 min 34 sec)
Heartbeat CPU 0 instructions: 570000002 cycles: 397256790 heartbeat IPC: 0.531 cumulative IPC: 1.355 (Simulation time: 02 hr 30 min 14 sec)
Heartbeat CPU 0 instructions: 580000000 cycles: 416071223 heartbeat IPC: 0.5315 cumulative IPC: 1.317 (Simulation time: 02 hr 34 min 43 sec)
Heartbeat CPU 0 instructions: 590000000 cycles: 434892245 heartbeat IPC: 0.5313 cumulative IPC: 1.282 (Simulation time: 02 hr 39 min 01 sec)
*** Reached end of trace: (0, "traces/l1l2l3cache.champsimtrace")
Heartbeat CPU 0 instructions: 600000000 cycles: 453657345 heartbeat IPC: 0.5329 cumulative IPC: 1.25 (Simulation time: 02 hr 43 min 38 sec)
Heartbeat CPU 0 instructions: 610000004 cycles: 464304704 heartbeat IPC: 0.9392 cumulative IPC: 1.243 (Simulation time: 02 hr 46 min 33 sec)
Heartbeat CPU 0 instructions: 620000001 cycles: 479797903 heartbeat IPC: 0.6454 cumulative IPC: 1.223 (Simulation time: 02 hr 50 min 20 sec)
Heartbeat CPU 0 instructions: 630000004 cycles: 495265153 heartbeat IPC: 0.6465 cumulative IPC: 1.204 (Simulation time: 02 hr 54 min 08 sec)
Heartbeat CPU 0 instructions: 640000000 cycles: 502468850 heartbeat IPC: 1.388 cumulative IPC: 1.207 (Simulation time: 02 hr 56 min 18 sec)
Heartbeat CPU 0 instructions: 650000001 cycles: 504969337 heartbeat IPC: 3.999 cumulative IPC: 1.221 (Simulation time: 02 hr 57 min 31 sec)
Simulation finished CPU 0 instructions: 600000003 cycles: 491348737 cumulative IPC: 1.221 (Simulation time: 02 hr 57 min 31 sec)
Simulation complete CPU 0 instructions: 600000003 cycles: 491348737 cumulative IPC: 1.221 (Simulation time: 02 hr 57 min 31 sec)

ChampSim completed all CPUs

=== Simulation ===
CPU 0 runs traces/l1l2l3cache.champsimtrace
Region of Interest Statistics

CPU 0 cumulative IPC: 1.221 instructions: 600000003 cycles: 491348737
CPU 0 Branch Prediction Accuracy: 99.99% MPKI: 0.01094 Average ROB Occupancy at Mispredict: 171.4
Branch type MPKI
BRANCH_DIRECT_JUMP: 8.5e-05
BRANCH_INDIRECT: 0.000237
BRANCH_CONDITIONAL: 0.0105
BRANCH_DIRECT_CALL: 5e-06
BRANCH_INDIRECT_CALL: 4.67e-05
BRANCH_RETURN: 3.67e-05

LLC TOTAL        ACCESS:    3089466 HIT:     747905 MISS:    2341561
LLC LOAD         ACCESS:    1954446 HIT:     178908 MISS:    1775538
LLC RFO          ACCESS:     561709 HIT:        972 MISS:     560737
LLC PREFETCH     ACCESS:          0 HIT:          0 MISS:          0
LLC WRITE        ACCESS:     562064 HIT:     562005 MISS:         59
LLC TRANSLATION  ACCESS:      11247 HIT:       6020 MISS:       5227
LLC PREFETCH REQUESTED:          0 ISSUED:          0 USEFUL:          0 USELESS:          0
LLC AVERAGE MISS LATENCY: 701.6 cycles
cpu0_DTLB TOTAL        ACCESS:  124324082 HIT:  122309185 MISS:    2014897
cpu0_DTLB LOAD         ACCESS:  124324082 HIT:  122309185 MISS:    2014897
cpu0_DTLB RFO          ACCESS:          0 HIT:          0 MISS:          0
cpu0_DTLB PREFETCH     ACCESS:          0 HIT:          0 MISS:          0
cpu0_DTLB WRITE        ACCESS:          0 HIT:          0 MISS:          0
cpu0_DTLB TRANSLATION  ACCESS:          0 HIT:          0 MISS:          0
cpu0_DTLB PREFETCH REQUESTED:          0 ISSUED:          0 USEFUL:          0 USELESS:          0
cpu0_DTLB AVERAGE MISS LATENCY: 18.4 cycles
cpu0_ITLB TOTAL        ACCESS:       5103 HIT:       4862 MISS:        241
cpu0_ITLB LOAD         ACCESS:       5103 HIT:       4862 MISS:        241
cpu0_ITLB RFO          ACCESS:          0 HIT:          0 MISS:          0
cpu0_ITLB PREFETCH     ACCESS:          0 HIT:          0 MISS:          0
cpu0_ITLB WRITE        ACCESS:          0 HIT:          0 MISS:          0
cpu0_ITLB TRANSLATION  ACCESS:          0 HIT:          0 MISS:          0
cpu0_ITLB PREFETCH REQUESTED:          0 ISSUED:          0 USEFUL:          0 USELESS:          0
cpu0_ITLB AVERAGE MISS LATENCY: 237.4 cycles
cpu0_L1D TOTAL        ACCESS:  172094851 HIT:  160486087 MISS:   11608764
cpu0_L1D LOAD         ACCESS:   63771525 HIT:   61721711 MISS:    2049814
cpu0_L1D RFO          ACCESS:          0 HIT:          0 MISS:          0
cpu0_L1D PREFETCH     ACCESS:          0 HIT:          0 MISS:          0
cpu0_L1D WRITE        ACCESS:  107017825 HIT:   98205117 MISS:    8812708
cpu0_L1D TRANSLATION  ACCESS:    1305501 HIT:     559259 MISS:     746242
cpu0_L1D PREFETCH REQUESTED:          0 ISSUED:          0 USEFUL:          0 USELESS:          0
cpu0_L1D AVERAGE MISS LATENCY: 141.1 cycles
cpu0_L1I TOTAL        ACCESS:       5884 HIT:       3306 MISS:       2578
cpu0_L1I LOAD         ACCESS:       5884 HIT:       3306 MISS:       2578
cpu0_L1I RFO          ACCESS:          0 HIT:          0 MISS:          0
cpu0_L1I PREFETCH     ACCESS:          0 HIT:          0 MISS:          0
cpu0_L1I WRITE        ACCESS:          0 HIT:          0 MISS:          0
cpu0_L1I TRANSLATION  ACCESS:          0 HIT:          0 MISS:          0
cpu0_L1I PREFETCH REQUESTED:          0 ISSUED:          0 USEFUL:          0 USELESS:          0
cpu0_L1I AVERAGE MISS LATENCY: 283.5 cycles
cpu0_L2C TOTAL        ACCESS:    3905752 HIT:    1378334 MISS:    2527418
cpu0_L2C LOAD         ACCESS:    2009353 HIT:      54907 MISS:    1954446
cpu0_L2C RFO          ACCESS:     574399 HIT:      12690 MISS:     561709
cpu0_L2C PREFETCH     ACCESS:          0 HIT:          0 MISS:          0
cpu0_L2C WRITE        ACCESS:     575772 HIT:     575756 MISS:         16
cpu0_L2C TRANSLATION  ACCESS:     746228 HIT:     734981 MISS:      11247
cpu0_L2C PREFETCH REQUESTED:          0 ISSUED:          0 USEFUL:          0 USELESS:          0
cpu0_L2C AVERAGE MISS LATENCY: 670.9 cycles
cpu0_STLB TOTAL        ACCESS:    1982617 HIT:     677124 MISS:    1305493
cpu0_STLB LOAD         ACCESS:    1982617 HIT:     677124 MISS:    1305493
cpu0_STLB RFO          ACCESS:          0 HIT:          0 MISS:          0
cpu0_STLB PREFETCH     ACCESS:          0 HIT:          0 MISS:          0
cpu0_STLB WRITE        ACCESS:          0 HIT:          0 MISS:          0
cpu0_STLB TRANSLATION  ACCESS:          0 HIT:          0 MISS:          0
cpu0_STLB PREFETCH REQUESTED:          0 ISSUED:          0 USEFUL:          0 USELESS:          0
cpu0_STLB AVERAGE MISS LATENCY: 15.36 cycles

DRAM Statistics

Channel 0 RQ ROW_BUFFER_HIT:     108448
  ROW_BUFFER_MISS:    2232752
 AVG DBUS CONGESTED CYCLE: 3.944
WQ ROW_BUFFER_HIT: Channel 0 
  ROW_BUFFER_MISS:     168843
  FULL:     393109
