WARNING: physical memory size is smaller than virtual memory size.

*** ChampSim Multicore Out-of-Order Simulator ***
Warmup Instructions: 50000000
Simulation Instructions: 600000000
Number of CPUs: 1
Page size: 4096

CPU 0 Tage branch predictor
Off-chip DRAM Size: 4 GiB Channels: 1 Width: 64-bit Data Race: 3200 MT/s
Heartbeat CPU 0 instructions: 10000000 cycles: 2565785 heartbeat IPC: 3.897 cumulative IPC: 3.897 (Simulation time: 00 hr 00 min 43 sec)
Heartbeat CPU 0 instructions: 20000000 cycles: 5131274 heartbeat IPC: 3.898 cumulative IPC: 3.898 (Simulation time: 00 hr 01 min 21 sec)
Heartbeat CPU 0 instructions: 30000000 cycles: 7631274 heartbeat IPC: 4 cumulative IPC: 3.931 (Simulation time: 00 hr 01 min 56 sec)
Heartbeat CPU 0 instructions: 40000000 cycles: 10131274 heartbeat IPC: 4 cumulative IPC: 3.948 (Simulation time: 00 hr 02 min 34 sec)
Heartbeat CPU 0 instructions: 50000000 cycles: 12631274 heartbeat IPC: 4 cumulative IPC: 3.958 (Simulation time: 00 hr 03 min 10 sec)
Warmup finished CPU 0 instructions: 50000000 cycles: 12631275 cumulative IPC: 3.958 (Simulation time: 00 hr 03 min 10 sec)
Warmup complete CPU 0 instructions: 50000000 cycles: 12631275 cumulative IPC: 3.958 (Simulation time: 00 hr 03 min 10 sec)
Heartbeat CPU 0 instructions: 60000002 cycles: 15446860 heartbeat IPC: 3.552 cumulative IPC: 3.552 (Simulation time: 00 hr 03 min 57 sec)
Heartbeat CPU 0 instructions: 70000001 cycles: 18261922 heartbeat IPC: 3.552 cumulative IPC: 3.552 (Simulation time: 00 hr 04 min 39 sec)
Heartbeat CPU 0 instructions: 80000004 cycles: 21079021 heartbeat IPC: 3.55 cumulative IPC: 3.551 (Simulation time: 00 hr 05 min 21 sec)
Heartbeat CPU 0 instructions: 90000000 cycles: 23893913 heartbeat IPC: 3.553 cumulative IPC: 3.552 (Simulation time: 00 hr 06 min 05 sec)
Heartbeat CPU 0 instructions: 100000003 cycles: 26710910 heartbeat IPC: 3.55 cumulative IPC: 3.551 (Simulation time: 00 hr 06 min 47 sec)
Heartbeat CPU 0 instructions: 110000000 cycles: 29526056 heartbeat IPC: 3.552 cumulative IPC: 3.551 (Simulation time: 00 hr 07 min 33 sec)
Heartbeat CPU 0 instructions: 120000002 cycles: 32340652 heartbeat IPC: 3.553 cumulative IPC: 3.552 (Simulation time: 00 hr 08 min 14 sec)
Heartbeat CPU 0 instructions: 130000001 cycles: 35155871 heartbeat IPC: 3.552 cumulative IPC: 3.552 (Simulation time: 00 hr 08 min 56 sec)
Heartbeat CPU 0 instructions: 140000002 cycles: 37970732 heartbeat IPC: 3.553 cumulative IPC: 3.552 (Simulation time: 00 hr 09 min 39 sec)
Heartbeat CPU 0 instructions: 150000000 cycles: 40786093 heartbeat IPC: 3.552 cumulative IPC: 3.552 (Simulation time: 00 hr 10 min 22 sec)
Heartbeat CPU 0 instructions: 160000002 cycles: 43603215 heartbeat IPC: 3.55 cumulative IPC: 3.552 (Simulation time: 00 hr 11 min 06 sec)
Heartbeat CPU 0 instructions: 170000000 cycles: 46419904 heartbeat IPC: 3.55 cumulative IPC: 3.551 (Simulation time: 00 hr 11 min 49 sec)
Heartbeat CPU 0 instructions: 180000003 cycles: 49235188 heartbeat IPC: 3.552 cumulative IPC: 3.552 (Simulation time: 00 hr 12 min 31 sec)
Heartbeat CPU 0 instructions: 190000001 cycles: 52051321 heartbeat IPC: 3.551 cumulative IPC: 3.551 (Simulation time: 00 hr 13 min 15 sec)
Heartbeat CPU 0 instructions: 200000001 cycles: 54867266 heartbeat IPC: 3.551 cumulative IPC: 3.551 (Simulation time: 00 hr 13 min 56 sec)
Heartbeat CPU 0 instructions: 210000004 cycles: 57683189 heartbeat IPC: 3.551 cumulative IPC: 3.551 (Simulation time: 00 hr 14 min 37 sec)
Heartbeat CPU 0 instructions: 220000002 cycles: 60498850 heartbeat IPC: 3.552 cumulative IPC: 3.551 (Simulation time: 00 hr 15 min 18 sec)
Heartbeat CPU 0 instructions: 230000001 cycles: 64212997 heartbeat IPC: 2.692 cumulative IPC: 3.49 (Simulation time: 00 hr 16 min 11 sec)
Heartbeat CPU 0 instructions: 240000003 cycles: 67463170 heartbeat IPC: 3.077 cumulative IPC: 3.465 (Simulation time: 00 hr 17 min 01 sec)
Heartbeat CPU 0 instructions: 250000003 cycles: 70278611 heartbeat IPC: 3.552 cumulative IPC: 3.469 (Simulation time: 00 hr 17 min 42 sec)
Heartbeat CPU 0 instructions: 260000002 cycles: 73092780 heartbeat IPC: 3.553 cumulative IPC: 3.473 (Simulation time: 00 hr 18 min 23 sec)
Heartbeat CPU 0 instructions: 270000004 cycles: 75907669 heartbeat IPC: 3.553 cumulative IPC: 3.477 (Simulation time: 00 hr 19 min 03 sec)
Heartbeat CPU 0 instructions: 280000001 cycles: 78724099 heartbeat IPC: 3.551 cumulative IPC: 3.48 (Simulation time: 00 hr 19 min 42 sec)
Heartbeat CPU 0 instructions: 290000002 cycles: 81539591 heartbeat IPC: 3.552 cumulative IPC: 3.483 (Simulation time: 00 hr 20 min 22 sec)
Heartbeat CPU 0 instructions: 300000004 cycles: 84356121 heartbeat IPC: 3.55 cumulative IPC: 3.486 (Simulation time: 00 hr 21 min 02 sec)
Heartbeat CPU 0 instructions: 310000002 cycles: 87172770 heartbeat IPC: 3.55 cumulative IPC: 3.488 (Simulation time: 00 hr 21 min 43 sec)
Heartbeat CPU 0 instructions: 320000000 cycles: 89989234 heartbeat IPC: 3.551 cumulative IPC: 3.49 (Simulation time: 00 hr 22 min 23 sec)
Heartbeat CPU 0 instructions: 330000004 cycles: 92805309 heartbeat IPC: 3.551 cumulative IPC: 3.492 (Simulation time: 00 hr 23 min 04 sec)
Heartbeat CPU 0 instructions: 340000000 cycles: 95622155 heartbeat IPC: 3.55 cumulative IPC: 3.494 (Simulation time: 00 hr 23 min 44 sec)
Heartbeat CPU 0 instructions: 350000003 cycles: 98438196 heartbeat IPC: 3.551 cumulative IPC: 3.496 (Simulation time: 00 hr 24 min 23 sec)
Heartbeat CPU 0 instructions: 360000003 cycles: 101254468 heartbeat IPC: 3.551 cumulative IPC: 3.498 (Simulation time: 00 hr 25 min 03 sec)
Heartbeat CPU 0 instructions: 370000003 cycles: 104071371 heartbeat IPC: 3.55 cumulative IPC: 3.5 (Simulation time: 00 hr 25 min 42 sec)
Heartbeat CPU 0 instructions: 380000003 cycles: 106886358 heartbeat IPC: 3.552 cumulative IPC: 3.501 (Simulation time: 00 hr 26 min 21 sec)
Heartbeat CPU 0 instructions: 390000000 cycles: 109701659 heartbeat IPC: 3.552 cumulative IPC: 3.503 (Simulation time: 00 hr 27 min 00 sec)
Heartbeat CPU 0 instructions: 400000002 cycles: 112518730 heartbeat IPC: 3.55 cumulative IPC: 3.504 (Simulation time: 00 hr 27 min 39 sec)
Heartbeat CPU 0 instructions: 410000004 cycles: 115334314 heartbeat IPC: 3.552 cumulative IPC: 3.505 (Simulation time: 00 hr 28 min 19 sec)
Heartbeat CPU 0 instructions: 420000001 cycles: 118151569 heartbeat IPC: 3.55 cumulative IPC: 3.506 (Simulation time: 00 hr 28 min 59 sec)
Heartbeat CPU 0 instructions: 430000001 cycles: 120966716 heartbeat IPC: 3.552 cumulative IPC: 3.508 (Simulation time: 00 hr 29 min 39 sec)
Heartbeat CPU 0 instructions: 440000002 cycles: 123782610 heartbeat IPC: 3.551 cumulative IPC: 3.509 (Simulation time: 00 hr 30 min 18 sec)
Heartbeat CPU 0 instructions: 450000001 cycles: 126419211 heartbeat IPC: 3.793 cumulative IPC: 3.515 (Simulation time: 00 hr 30 min 59 sec)
Heartbeat CPU 0 instructions: 460000002 cycles: 129042447 heartbeat IPC: 3.812 cumulative IPC: 3.522 (Simulation time: 00 hr 31 min 42 sec)
Heartbeat CPU 0 instructions: 470000004 cycles: 131859175 heartbeat IPC: 3.55 cumulative IPC: 3.523 (Simulation time: 00 hr 32 min 21 sec)
Heartbeat CPU 0 instructions: 480000000 cycles: 134675260 heartbeat IPC: 3.551 cumulative IPC: 3.523 (Simulation time: 00 hr 33 min 01 sec)
Heartbeat CPU 0 instructions: 490000000 cycles: 137491921 heartbeat IPC: 3.55 cumulative IPC: 3.524 (Simulation time: 00 hr 33 min 40 sec)
Heartbeat CPU 0 instructions: 500000002 cycles: 140307430 heartbeat IPC: 3.552 cumulative IPC: 3.525 (Simulation time: 00 hr 34 min 19 sec)
Heartbeat CPU 0 instructions: 510000001 cycles: 143122928 heartbeat IPC: 3.552 cumulative IPC: 3.525 (Simulation time: 00 hr 34 min 58 sec)
Heartbeat CPU 0 instructions: 520000003 cycles: 145939050 heartbeat IPC: 3.551 cumulative IPC: 3.526 (Simulation time: 00 hr 35 min 38 sec)
Heartbeat CPU 0 instructions: 530000002 cycles: 148755076 heartbeat IPC: 3.551 cumulative IPC: 3.526 (Simulation time: 00 hr 36 min 17 sec)
Heartbeat CPU 0 instructions: 540000000 cycles: 151570859 heartbeat IPC: 3.551 cumulative IPC: 3.527 (Simulation time: 00 hr 36 min 57 sec)
Heartbeat CPU 0 instructions: 550000000 cycles: 154385764 heartbeat IPC: 3.553 cumulative IPC: 3.527 (Simulation time: 00 hr 37 min 36 sec)
Heartbeat CPU 0 instructions: 560000001 cycles: 157201671 heartbeat IPC: 3.551 cumulative IPC: 3.528 (Simulation time: 00 hr 38 min 16 sec)
Heartbeat CPU 0 instructions: 570000001 cycles: 160018630 heartbeat IPC: 3.55 cumulative IPC: 3.528 (Simulation time: 00 hr 38 min 55 sec)
Heartbeat CPU 0 instructions: 580000002 cycles: 162835341 heartbeat IPC: 3.55 cumulative IPC: 3.529 (Simulation time: 00 hr 39 min 34 sec)
Heartbeat CPU 0 instructions: 590000003 cycles: 165650480 heartbeat IPC: 3.552 cumulative IPC: 3.529 (Simulation time: 00 hr 40 min 13 sec)
*** Reached end of trace: (0, "traces/l1l2cache.champsimtrace")
Heartbeat CPU 0 instructions: 600000001 cycles: 168467486 heartbeat IPC: 3.55 cumulative IPC: 3.529 (Simulation time: 00 hr 40 min 51 sec)
Heartbeat CPU 0 instructions: 610000001 cycles: 177180130 heartbeat IPC: 1.148 cumulative IPC: 3.403 (Simulation time: 00 hr 42 min 09 sec)
Heartbeat CPU 0 instructions: 620000004 cycles: 180041770 heartbeat IPC: 3.495 cumulative IPC: 3.405 (Simulation time: 00 hr 42 min 52 sec)
Heartbeat CPU 0 instructions: 630000004 cycles: 182856540 heartbeat IPC: 3.553 cumulative IPC: 3.407 (Simulation time: 00 hr 43 min 29 sec)
Heartbeat CPU 0 instructions: 640000000 cycles: 185672557 heartbeat IPC: 3.551 cumulative IPC: 3.41 (Simulation time: 00 hr 44 min 06 sec)
Heartbeat CPU 0 instructions: 650000004 cycles: 188487944 heartbeat IPC: 3.552 cumulative IPC: 3.412 (Simulation time: 00 hr 44 min 42 sec)
Simulation finished CPU 0 instructions: 600000004 cycles: 175856670 cumulative IPC: 3.412 (Simulation time: 00 hr 44 min 42 sec)
Simulation complete CPU 0 instructions: 600000004 cycles: 175856670 cumulative IPC: 3.412 (Simulation time: 00 hr 44 min 42 sec)

ChampSim completed all CPUs

=== Simulation ===
CPU 0 runs traces/l1l2cache.champsimtrace
Region of Interest Statistics

CPU 0 cumulative IPC: 3.412 instructions: 600000004 cycles: 175856670
CPU 0 Branch Prediction Accuracy: 97.76% MPKI: 1.901 Average ROB Occupancy at Mispredict: 151.3
Branch type MPKI
BRANCH_DIRECT_JUMP: 9.5e-05
BRANCH_INDIRECT: 0.000282
BRANCH_CONDITIONAL: 1.9
BRANCH_DIRECT_CALL: 3.33e-06
BRANCH_INDIRECT_CALL: 4.83e-05
BRANCH_RETURN: 3.33e-05

LLC TOTAL        ACCESS:     408861 HIT:     320882 MISS:      87979
LLC LOAD         ACCESS:      59445 HIT:      47774 MISS:      11671
LLC RFO          ACCESS:      99913 HIT:      43841 MISS:      56072
LLC PREFETCH     ACCESS:     149200 HIT:     129761 MISS:      19439
LLC WRITE        ACCESS:     100298 HIT:      99506 MISS:        792
LLC TRANSLATION  ACCESS:          5 HIT:          0 MISS:          5
LLC PREFETCH REQUESTED:     149200 ISSUED:     149200 USEFUL:       8290 USELESS:        215
LLC AVERAGE MISS LATENCY: 701.1 cycles
cpu0_DTLB TOTAL        ACCESS:   78672592 HIT:   78661605 MISS:      10987
cpu0_DTLB LOAD         ACCESS:   78672592 HIT:   78661605 MISS:      10987
cpu0_DTLB RFO          ACCESS:          0 HIT:          0 MISS:          0
cpu0_DTLB PREFETCH     ACCESS:          0 HIT:          0 MISS:          0
cpu0_DTLB WRITE        ACCESS:          0 HIT:          0 MISS:          0
cpu0_DTLB TRANSLATION  ACCESS:          0 HIT:          0 MISS:          0
cpu0_DTLB PREFETCH REQUESTED:          0 ISSUED:          0 USEFUL:          0 USELESS:          0
cpu0_DTLB AVERAGE MISS LATENCY: 5.804 cycles
cpu0_ITLB TOTAL        ACCESS:       5653 HIT:       5413 MISS:        240
cpu0_ITLB LOAD         ACCESS:       5653 HIT:       5413 MISS:        240
cpu0_ITLB RFO          ACCESS:          0 HIT:          0 MISS:          0
cpu0_ITLB PREFETCH     ACCESS:          0 HIT:          0 MISS:          0
cpu0_ITLB WRITE        ACCESS:          0 HIT:          0 MISS:          0
cpu0_ITLB TRANSLATION  ACCESS:          0 HIT:          0 MISS:          0
cpu0_ITLB PREFETCH REQUESTED:          0 ISSUED:          0 USEFUL:          0 USELESS:          0
cpu0_ITLB AVERAGE MISS LATENCY: 5.767 cycles
cpu0_L1D TOTAL        ACCESS:   97701114 HIT:   96047897 MISS:    1653217
cpu0_L1D LOAD         ACCESS:   38620345 HIT:   38251072 MISS:     369273
cpu0_L1D RFO          ACCESS:          0 HIT:          0 MISS:          0
cpu0_L1D PREFETCH     ACCESS:          0 HIT:          0 MISS:          0
cpu0_L1D WRITE        ACCESS:   59080511 HIT:   57796572 MISS:    1283939
cpu0_L1D TRANSLATION  ACCESS:        258 HIT:        253 MISS:          5
cpu0_L1D PREFETCH REQUESTED:          0 ISSUED:          0 USEFUL:          0 USELESS:          0
cpu0_L1D AVERAGE MISS LATENCY: 32.93 cycles
cpu0_L1I TOTAL        ACCESS:       6450 HIT:       3953 MISS:       2497
cpu0_L1I LOAD         ACCESS:       6450 HIT:       3953 MISS:       2497
cpu0_L1I RFO          ACCESS:          0 HIT:          0 MISS:          0
cpu0_L1I PREFETCH     ACCESS:          0 HIT:          0 MISS:          0
cpu0_L1I WRITE        ACCESS:          0 HIT:          0 MISS:          0
cpu0_L1I TRANSLATION  ACCESS:          0 HIT:          0 MISS:          0
cpu0_L1I PREFETCH REQUESTED:          0 ISSUED:          0 USEFUL:          0 USELESS:          0
cpu0_L1I AVERAGE MISS LATENCY: 617.3 cycles
cpu0_L2C TOTAL        ACCESS:     265742 HIT:     106359 MISS:     159383
cpu0_L2C LOAD         ACCESS:      63734 HIT:       4289 MISS:      59445
cpu0_L2C RFO          ACCESS:     100742 HIT:        829 MISS:      99913
cpu0_L2C PREFETCH     ACCESS:          0 HIT:          0 MISS:          0
cpu0_L2C WRITE        ACCESS:     101261 HIT:     101241 MISS:         20
cpu0_L2C TRANSLATION  ACCESS:          5 HIT:          0 MISS:          5
cpu0_L2C PREFETCH REQUESTED:          0 ISSUED:          0 USEFUL:          0 USELESS:          0
cpu0_L2C AVERAGE MISS LATENCY: 383.5 cycles
cpu0_STLB TOTAL        ACCESS:       3912 HIT:       3655 MISS:        257
cpu0_STLB LOAD         ACCESS:       3912 HIT:       3655 MISS:        257
cpu0_STLB RFO          ACCESS:          0 HIT:          0 MISS:          0
cpu0_STLB PREFETCH     ACCESS:          0 HIT:          0 MISS:          0
cpu0_STLB WRITE        ACCESS:          0 HIT:          0 MISS:          0
cpu0_STLB TRANSLATION  ACCESS:          0 HIT:          0 MISS:          0
cpu0_STLB PREFETCH REQUESTED:          0 ISSUED:          0 USEFUL:          0 USELESS:          0
cpu0_STLB AVERAGE MISS LATENCY: 218.4 cycles

DRAM Statistics

Channel 0 RQ ROW_BUFFER_HIT:      29707
  ROW_BUFFER_MISS:      42527
 AVG DBUS CONGESTED CYCLE: 3.977
WQ ROW_BUFFER_HIT: Channel 0 
  ROW_BUFFER_MISS:       9356
  FULL:      41905
