WARNING: physical memory size is smaller than virtual memory size.

*** ChampSim Multicore Out-of-Order Simulator ***
Warmup Instructions: 50000000
Simulation Instructions: 600000000
Number of CPUs: 1
Page size: 4096

Off-chip DRAM Size: 4 GiB Channels: 1 Width: 64-bit Data Race: 3200 MT/s
Heartbeat CPU 0 instructions: 10000004 cycles: 2777663 heartbeat IPC: 3.6 cumulative IPC: 3.6 (Simulation time: 00 hr 00 min 39 sec)
Heartbeat CPU 0 instructions: 20000001 cycles: 5634805 heartbeat IPC: 3.5 cumulative IPC: 3.549 (Simulation time: 00 hr 01 min 18 sec)
Heartbeat CPU 0 instructions: 30000000 cycles: 8491948 heartbeat IPC: 3.5 cumulative IPC: 3.533 (Simulation time: 00 hr 01 min 56 sec)
Heartbeat CPU 0 instructions: 40000003 cycles: 11120601 heartbeat IPC: 3.804 cumulative IPC: 3.597 (Simulation time: 00 hr 02 min 34 sec)
Heartbeat CPU 0 instructions: 50000003 cycles: 13620601 heartbeat IPC: 4 cumulative IPC: 3.671 (Simulation time: 00 hr 03 min 08 sec)
Warmup finished CPU 0 instructions: 50000003 cycles: 13620602 cumulative IPC: 3.671 (Simulation time: 00 hr 03 min 08 sec)
Warmup complete CPU 0 instructions: 50000003 cycles: 13620602 cumulative IPC: 3.671 (Simulation time: 00 hr 03 min 08 sec)
Heartbeat CPU 0 instructions: 60000002 cycles: 16295256 heartbeat IPC: 3.739 cumulative IPC: 3.739 (Simulation time: 00 hr 03 min 47 sec)
Heartbeat CPU 0 instructions: 70000001 cycles: 18969955 heartbeat IPC: 3.739 cumulative IPC: 3.739 (Simulation time: 00 hr 04 min 29 sec)
Heartbeat CPU 0 instructions: 80000000 cycles: 21644609 heartbeat IPC: 3.739 cumulative IPC: 3.739 (Simulation time: 00 hr 05 min 08 sec)
Heartbeat CPU 0 instructions: 90000003 cycles: 24320493 heartbeat IPC: 3.737 cumulative IPC: 3.738 (Simulation time: 00 hr 05 min 48 sec)
Heartbeat CPU 0 instructions: 100000003 cycles: 26995148 heartbeat IPC: 3.739 cumulative IPC: 3.738 (Simulation time: 00 hr 06 min 32 sec)
Heartbeat CPU 0 instructions: 110000004 cycles: 29669849 heartbeat IPC: 3.739 cumulative IPC: 3.738 (Simulation time: 00 hr 07 min 13 sec)
Heartbeat CPU 0 instructions: 120000003 cycles: 32344532 heartbeat IPC: 3.739 cumulative IPC: 3.739 (Simulation time: 00 hr 07 min 54 sec)
Heartbeat CPU 0 instructions: 130000002 cycles: 35019202 heartbeat IPC: 3.739 cumulative IPC: 3.739 (Simulation time: 00 hr 08 min 36 sec)
Heartbeat CPU 0 instructions: 140000002 cycles: 37694278 heartbeat IPC: 3.738 cumulative IPC: 3.739 (Simulation time: 00 hr 09 min 19 sec)
Heartbeat CPU 0 instructions: 150000000 cycles: 40368933 heartbeat IPC: 3.739 cumulative IPC: 3.739 (Simulation time: 00 hr 10 min 10 sec)
Heartbeat CPU 0 instructions: 160000001 cycles: 43043634 heartbeat IPC: 3.739 cumulative IPC: 3.739 (Simulation time: 00 hr 10 min 58 sec)
Heartbeat CPU 0 instructions: 170000004 cycles: 45718288 heartbeat IPC: 3.739 cumulative IPC: 3.739 (Simulation time: 00 hr 11 min 42 sec)
Heartbeat CPU 0 instructions: 180000000 cycles: 48393368 heartbeat IPC: 3.738 cumulative IPC: 3.739 (Simulation time: 00 hr 12 min 25 sec)
Heartbeat CPU 0 instructions: 190000004 cycles: 51068067 heartbeat IPC: 3.739 cumulative IPC: 3.739 (Simulation time: 00 hr 13 min 14 sec)
Heartbeat CPU 0 instructions: 200000002 cycles: 53742724 heartbeat IPC: 3.739 cumulative IPC: 3.739 (Simulation time: 00 hr 14 min 02 sec)
Heartbeat CPU 0 instructions: 210000003 cycles: 56417425 heartbeat IPC: 3.739 cumulative IPC: 3.739 (Simulation time: 00 hr 14 min 44 sec)
Heartbeat CPU 0 instructions: 220000001 cycles: 59092078 heartbeat IPC: 3.739 cumulative IPC: 3.739 (Simulation time: 00 hr 15 min 26 sec)
Heartbeat CPU 0 instructions: 230000002 cycles: 61767151 heartbeat IPC: 3.738 cumulative IPC: 3.739 (Simulation time: 00 hr 16 min 11 sec)
Heartbeat CPU 0 instructions: 240000003 cycles: 64441805 heartbeat IPC: 3.739 cumulative IPC: 3.739 (Simulation time: 00 hr 16 min 52 sec)
Heartbeat CPU 0 instructions: 250000004 cycles: 67116507 heartbeat IPC: 3.739 cumulative IPC: 3.739 (Simulation time: 00 hr 17 min 34 sec)
Heartbeat CPU 0 instructions: 260000000 cycles: 69791203 heartbeat IPC: 3.739 cumulative IPC: 3.739 (Simulation time: 00 hr 18 min 31 sec)
Heartbeat CPU 0 instructions: 270000003 cycles: 72466693 heartbeat IPC: 3.738 cumulative IPC: 3.739 (Simulation time: 00 hr 19 min 37 sec)
Heartbeat CPU 0 instructions: 280000001 cycles: 75141392 heartbeat IPC: 3.739 cumulative IPC: 3.739 (Simulation time: 00 hr 20 min 43 sec)
Heartbeat CPU 0 instructions: 290000000 cycles: 77816046 heartbeat IPC: 3.739 cumulative IPC: 3.739 (Simulation time: 00 hr 21 min 48 sec)
Heartbeat CPU 0 instructions: 300000001 cycles: 80490748 heartbeat IPC: 3.739 cumulative IPC: 3.739 (Simulation time: 00 hr 22 min 47 sec)
Heartbeat CPU 0 instructions: 310000000 cycles: 83165402 heartbeat IPC: 3.739 cumulative IPC: 3.739 (Simulation time: 00 hr 23 min 41 sec)
Heartbeat CPU 0 instructions: 320000000 cycles: 85840476 heartbeat IPC: 3.738 cumulative IPC: 3.739 (Simulation time: 00 hr 24 min 32 sec)
Heartbeat CPU 0 instructions: 330000002 cycles: 88515174 heartbeat IPC: 3.739 cumulative IPC: 3.739 (Simulation time: 00 hr 25 min 21 sec)
Heartbeat CPU 0 instructions: 340000002 cycles: 91189830 heartbeat IPC: 3.739 cumulative IPC: 3.739 (Simulation time: 00 hr 26 min 14 sec)
Heartbeat CPU 0 instructions: 350000003 cycles: 93864532 heartbeat IPC: 3.739 cumulative IPC: 3.739 (Simulation time: 00 hr 27 min 05 sec)
Heartbeat CPU 0 instructions: 360000001 cycles: 96539549 heartbeat IPC: 3.738 cumulative IPC: 3.739 (Simulation time: 00 hr 27 min 54 sec)
Heartbeat CPU 0 instructions: 370000002 cycles: 99214250 heartbeat IPC: 3.739 cumulative IPC: 3.739 (Simulation time: 00 hr 28 min 46 sec)
Heartbeat CPU 0 instructions: 380000001 cycles: 101888917 heartbeat IPC: 3.739 cumulative IPC: 3.739 (Simulation time: 00 hr 29 min 36 sec)
Heartbeat CPU 0 instructions: 390000004 cycles: 104563604 heartbeat IPC: 3.739 cumulative IPC: 3.739 (Simulation time: 00 hr 30 min 25 sec)
Heartbeat CPU 0 instructions: 400000000 cycles: 107238302 heartbeat IPC: 3.739 cumulative IPC: 3.739 (Simulation time: 00 hr 31 min 13 sec)
Heartbeat CPU 0 instructions: 410000003 cycles: 109913333 heartbeat IPC: 3.738 cumulative IPC: 3.739 (Simulation time: 00 hr 32 min 03 sec)
Heartbeat CPU 0 instructions: 420000003 cycles: 118089876 heartbeat IPC: 1.223 cumulative IPC: 3.542 (Simulation time: 00 hr 33 min 47 sec)
Heartbeat CPU 0 instructions: 430000003 cycles: 140345426 heartbeat IPC: 0.4493 cumulative IPC: 2.999 (Simulation time: 00 hr 37 min 48 sec)
Heartbeat CPU 0 instructions: 440000004 cycles: 159437794 heartbeat IPC: 0.5238 cumulative IPC: 2.675 (Simulation time: 00 hr 41 min 18 sec)
Heartbeat CPU 0 instructions: 450000000 cycles: 178215840 heartbeat IPC: 0.5325 cumulative IPC: 2.43 (Simulation time: 00 hr 44 min 35 sec)
Heartbeat CPU 0 instructions: 460000002 cycles: 196989272 heartbeat IPC: 0.5327 cumulative IPC: 2.236 (Simulation time: 00 hr 47 min 47 sec)
Heartbeat CPU 0 instructions: 470000003 cycles: 215784965 heartbeat IPC: 0.532 cumulative IPC: 2.078 (Simulation time: 00 hr 50 min 52 sec)
Heartbeat CPU 0 instructions: 480000003 cycles: 234552046 heartbeat IPC: 0.5328 cumulative IPC: 1.946 (Simulation time: 00 hr 53 min 55 sec)
Heartbeat CPU 0 instructions: 490000004 cycles: 253296230 heartbeat IPC: 0.5335 cumulative IPC: 1.836 (Simulation time: 00 hr 56 min 53 sec)
Heartbeat CPU 0 instructions: 500000003 cycles: 272068519 heartbeat IPC: 0.5327 cumulative IPC: 1.741 (Simulation time: 00 hr 59 min 51 sec)
Heartbeat CPU 0 instructions: 510000002 cycles: 290811471 heartbeat IPC: 0.5335 cumulative IPC: 1.66 (Simulation time: 01 hr 02 min 50 sec)
Heartbeat CPU 0 instructions: 520000003 cycles: 309598633 heartbeat IPC: 0.5323 cumulative IPC: 1.588 (Simulation time: 01 hr 05 min 51 sec)
Heartbeat CPU 0 instructions: 530000003 cycles: 328351560 heartbeat IPC: 0.5333 cumulative IPC: 1.525 (Simulation time: 01 hr 08 min 23 sec)
Heartbeat CPU 0 instructions: 540000004 cycles: 347063052 heartbeat IPC: 0.5344 cumulative IPC: 1.47 (Simulation time: 01 hr 10 min 37 sec)
Heartbeat CPU 0 instructions: 550000000 cycles: 365845741 heartbeat IPC: 0.5324 cumulative IPC: 1.42 (Simulation time: 01 hr 12 min 51 sec)
Heartbeat CPU 0 instructions: 560000002 cycles: 384615916 heartbeat IPC: 0.5328 cumulative IPC: 1.375 (Simulation time: 01 hr 15 min 19 sec)
Heartbeat CPU 0 instructions: 570000002 cycles: 403411334 heartbeat IPC: 0.532 cumulative IPC: 1.334 (Simulation time: 01 hr 17 min 47 sec)
Heartbeat CPU 0 instructions: 580000000 cycles: 422188283 heartbeat IPC: 0.5326 cumulative IPC: 1.297 (Simulation time: 01 hr 20 min 11 sec)
Heartbeat CPU 0 instructions: 590000000 cycles: 440961610 heartbeat IPC: 0.5327 cumulative IPC: 1.264 (Simulation time: 01 hr 22 min 32 sec)
*** Reached end of trace: (0, "traces/l1l2l3cache.champsimtrace")
Heartbeat CPU 0 instructions: 600000000 cycles: 459691716 heartbeat IPC: 0.5339 cumulative IPC: 1.233 (Simulation time: 01 hr 24 min 45 sec)
Heartbeat CPU 0 instructions: 610000004 cycles: 470996719 heartbeat IPC: 0.8846 cumulative IPC: 1.224 (Simulation time: 01 hr 26 min 07 sec)
Heartbeat CPU 0 instructions: 620000001 cycles: 487159954 heartbeat IPC: 0.6187 cumulative IPC: 1.204 (Simulation time: 01 hr 28 min 17 sec)
Heartbeat CPU 0 instructions: 630000000 cycles: 502626719 heartbeat IPC: 0.6465 cumulative IPC: 1.186 (Simulation time: 01 hr 30 min 54 sec)
Heartbeat CPU 0 instructions: 640000000 cycles: 509942794 heartbeat IPC: 1.367 cumulative IPC: 1.189 (Simulation time: 01 hr 32 min 11 sec)
Heartbeat CPU 0 instructions: 650000003 cycles: 512618579 heartbeat IPC: 3.737 cumulative IPC: 1.202 (Simulation time: 01 hr 32 min 51 sec)
Simulation finished CPU 0 instructions: 600000000 cycles: 498997978 cumulative IPC: 1.202 (Simulation time: 01 hr 32 min 51 sec)
Simulation complete CPU 0 instructions: 600000000 cycles: 498997978 cumulative IPC: 1.202 (Simulation time: 01 hr 32 min 51 sec)

ChampSim completed all CPUs

=== Simulation ===
CPU 0 runs traces/l1l2l3cache.champsimtrace
Region of Interest Statistics

CPU 0 cumulative IPC: 1.202 instructions: 600000000 cycles: 498997978
CPU 0 Branch Prediction Accuracy: 99.5% MPKI: 1.069 Average ROB Occupancy at Mispredict: 148.9
Branch type MPKI
BRANCH_DIRECT_JUMP: 8.5e-05
BRANCH_INDIRECT: 0.000237
BRANCH_CONDITIONAL: 1.07
BRANCH_DIRECT_CALL: 5e-06
BRANCH_INDIRECT_CALL: 4.67e-05
BRANCH_RETURN: 3.67e-05

LLC TOTAL        ACCESS:    3089468 HIT:     753553 MISS:    2335915
LLC LOAD         ACCESS:    1954442 HIT:     182257 MISS:    1772185
LLC RFO          ACCESS:     561712 HIT:       1502 MISS:     560210
LLC PREFETCH     ACCESS:          0 HIT:          0 MISS:          0
LLC WRITE        ACCESS:     562067 HIT:     561938 MISS:        129
LLC TRANSLATION  ACCESS:      11247 HIT:       7856 MISS:       3391
LLC PREFETCH REQUESTED:          0 ISSUED:          0 USEFUL:          0 USELESS:          0
LLC AVERAGE MISS LATENCY: 704.1 cycles
cpu0_DTLB TOTAL        ACCESS:  130575848 HIT:  128560954 MISS:    2014894
cpu0_DTLB LOAD         ACCESS:  130575848 HIT:  128560954 MISS:    2014894
cpu0_DTLB RFO          ACCESS:          0 HIT:          0 MISS:          0
cpu0_DTLB PREFETCH     ACCESS:          0 HIT:          0 MISS:          0
cpu0_DTLB WRITE        ACCESS:          0 HIT:          0 MISS:          0
cpu0_DTLB TRANSLATION  ACCESS:          0 HIT:          0 MISS:          0
cpu0_DTLB PREFETCH REQUESTED:          0 ISSUED:          0 USEFUL:          0 USELESS:          0
cpu0_DTLB AVERAGE MISS LATENCY: 17.82 cycles
cpu0_ITLB TOTAL        ACCESS:       5020 HIT:       4791 MISS:        229
cpu0_ITLB LOAD         ACCESS:       5020 HIT:       4791 MISS:        229
cpu0_ITLB RFO          ACCESS:          0 HIT:          0 MISS:          0
cpu0_ITLB PREFETCH     ACCESS:          0 HIT:          0 MISS:          0
cpu0_ITLB WRITE        ACCESS:          0 HIT:          0 MISS:          0
cpu0_ITLB TRANSLATION  ACCESS:          0 HIT:          0 MISS:          0
cpu0_ITLB PREFETCH REQUESTED:          0 ISSUED:          0 USEFUL:          0 USELESS:          0
cpu0_ITLB AVERAGE MISS LATENCY: 238.6 cycles
cpu0_L1D TOTAL        ACCESS:  178086311 HIT:  166496416 MISS:   11589895
cpu0_L1D LOAD         ACCESS:   69780984 HIT:   67730303 MISS:    2050681
cpu0_L1D RFO          ACCESS:          0 HIT:          0 MISS:          0
cpu0_L1D PREFETCH     ACCESS:          0 HIT:          0 MISS:          0
cpu0_L1D WRITE        ACCESS:  106999825 HIT:   98206859 MISS:    8792966
cpu0_L1D TRANSLATION  ACCESS:    1305502 HIT:     559254 MISS:     746248
cpu0_L1D PREFETCH REQUESTED:          0 ISSUED:          0 USEFUL:          0 USELESS:          0
cpu0_L1D AVERAGE MISS LATENCY: 141 cycles
cpu0_L1I TOTAL        ACCESS:       5733 HIT:       3253 MISS:       2480
cpu0_L1I LOAD         ACCESS:       5733 HIT:       3253 MISS:       2480
cpu0_L1I RFO          ACCESS:          0 HIT:          0 MISS:          0
cpu0_L1I PREFETCH     ACCESS:          0 HIT:          0 MISS:          0
cpu0_L1I WRITE        ACCESS:          0 HIT:          0 MISS:          0
cpu0_L1I TRANSLATION  ACCESS:          0 HIT:          0 MISS:          0
cpu0_L1I PREFETCH REQUESTED:          0 ISSUED:          0 USEFUL:          0 USELESS:          0
cpu0_L1I AVERAGE MISS LATENCY: 296.2 cycles
cpu0_L2C TOTAL        ACCESS:    3903787 HIT:    1376367 MISS:    2527420
cpu0_L2C LOAD         ACCESS:    2009351 HIT:      54909 MISS:    1954442
cpu0_L2C RFO          ACCESS:     573521 HIT:      11809 MISS:     561712
cpu0_L2C PREFETCH     ACCESS:          0 HIT:          0 MISS:          0
cpu0_L2C WRITE        ACCESS:     574680 HIT:     574661 MISS:         19
cpu0_L2C TRANSLATION  ACCESS:     746235 HIT:     734988 MISS:      11247
cpu0_L2C PREFETCH REQUESTED:          0 ISSUED:          0 USEFUL:          0 USELESS:          0
cpu0_L2C AVERAGE MISS LATENCY: 671.7 cycles
cpu0_STLB TOTAL        ACCESS:    1982637 HIT:     677143 MISS:    1305494
cpu0_STLB LOAD         ACCESS:    1982637 HIT:     677143 MISS:    1305494
cpu0_STLB RFO          ACCESS:          0 HIT:          0 MISS:          0
cpu0_STLB PREFETCH     ACCESS:          0 HIT:          0 MISS:          0
cpu0_STLB WRITE        ACCESS:          0 HIT:          0 MISS:          0
cpu0_STLB TRANSLATION  ACCESS:          0 HIT:          0 MISS:          0
cpu0_STLB PREFETCH REQUESTED:          0 ISSUED:          0 USEFUL:          0 USELESS:          0
cpu0_STLB AVERAGE MISS LATENCY: 14.46 cycles

DRAM Statistics

Channel 0 RQ ROW_BUFFER_HIT:     109056
  ROW_BUFFER_MISS:    2226431
 AVG DBUS CONGESTED CYCLE: 3.948
WQ ROW_BUFFER_HIT: Channel 0 
  ROW_BUFFER_MISS:     151097
  FULL:     410862
