WARNING: physical memory size is smaller than virtual memory size.

*** ChampSim Multicore Out-of-Order Simulator ***
Warmup Instructions: 50000000
Simulation Instructions: 600000000
Number of CPUs: 1
Page size: 4096

Off-chip DRAM Size: 4 GiB Channels: 1 Width: 64-bit Data Race: 3200 MT/s
Heartbeat CPU 0 instructions: 10000000 cycles: 2565785 heartbeat IPC: 3.897 cumulative IPC: 3.897 (Simulation time: 00 hr 00 min 33 sec)
Heartbeat CPU 0 instructions: 20000000 cycles: 5131274 heartbeat IPC: 3.898 cumulative IPC: 3.898 (Simulation time: 00 hr 01 min 09 sec)
Heartbeat CPU 0 instructions: 30000000 cycles: 7631274 heartbeat IPC: 4 cumulative IPC: 3.931 (Simulation time: 00 hr 01 min 40 sec)
Heartbeat CPU 0 instructions: 40000000 cycles: 10131274 heartbeat IPC: 4 cumulative IPC: 3.948 (Simulation time: 00 hr 02 min 11 sec)
Heartbeat CPU 0 instructions: 50000000 cycles: 12631274 heartbeat IPC: 4 cumulative IPC: 3.958 (Simulation time: 00 hr 02 min 44 sec)
Warmup finished CPU 0 instructions: 50000000 cycles: 12631275 cumulative IPC: 3.958 (Simulation time: 00 hr 02 min 44 sec)
Warmup complete CPU 0 instructions: 50000000 cycles: 12631275 cumulative IPC: 3.958 (Simulation time: 00 hr 02 min 44 sec)
Heartbeat CPU 0 instructions: 60000000 cycles: 16058852 heartbeat IPC: 2.918 cumulative IPC: 2.918 (Simulation time: 00 hr 03 min 23 sec)
Heartbeat CPU 0 instructions: 70000000 cycles: 19488286 heartbeat IPC: 2.916 cumulative IPC: 2.917 (Simulation time: 00 hr 04 min 01 sec)
Heartbeat CPU 0 instructions: 80000004 cycles: 22914704 heartbeat IPC: 2.919 cumulative IPC: 2.917 (Simulation time: 00 hr 04 min 44 sec)
Heartbeat CPU 0 instructions: 90000000 cycles: 26342392 heartbeat IPC: 2.917 cumulative IPC: 2.917 (Simulation time: 00 hr 05 min 26 sec)
Heartbeat CPU 0 instructions: 100000003 cycles: 29773619 heartbeat IPC: 2.914 cumulative IPC: 2.917 (Simulation time: 00 hr 06 min 06 sec)
Heartbeat CPU 0 instructions: 110000000 cycles: 33199684 heartbeat IPC: 2.919 cumulative IPC: 2.917 (Simulation time: 00 hr 06 min 46 sec)
Heartbeat CPU 0 instructions: 120000001 cycles: 36624207 heartbeat IPC: 2.92 cumulative IPC: 2.918 (Simulation time: 00 hr 07 min 26 sec)
Heartbeat CPU 0 instructions: 130000001 cycles: 40050788 heartbeat IPC: 2.918 cumulative IPC: 2.918 (Simulation time: 00 hr 08 min 17 sec)
Heartbeat CPU 0 instructions: 140000002 cycles: 43477136 heartbeat IPC: 2.919 cumulative IPC: 2.918 (Simulation time: 00 hr 09 min 01 sec)
Heartbeat CPU 0 instructions: 150000000 cycles: 46902215 heartbeat IPC: 2.92 cumulative IPC: 2.918 (Simulation time: 00 hr 09 min 45 sec)
Heartbeat CPU 0 instructions: 160000002 cycles: 50328722 heartbeat IPC: 2.918 cumulative IPC: 2.918 (Simulation time: 00 hr 10 min 27 sec)
Heartbeat CPU 0 instructions: 170000000 cycles: 53756209 heartbeat IPC: 2.918 cumulative IPC: 2.918 (Simulation time: 00 hr 11 min 07 sec)
Heartbeat CPU 0 instructions: 180000004 cycles: 57182235 heartbeat IPC: 2.919 cumulative IPC: 2.918 (Simulation time: 00 hr 11 min 49 sec)
Heartbeat CPU 0 instructions: 190000001 cycles: 60608942 heartbeat IPC: 2.918 cumulative IPC: 2.918 (Simulation time: 00 hr 12 min 28 sec)
Heartbeat CPU 0 instructions: 200000001 cycles: 64034698 heartbeat IPC: 2.919 cumulative IPC: 2.918 (Simulation time: 00 hr 13 min 09 sec)
Heartbeat CPU 0 instructions: 210000004 cycles: 67460593 heartbeat IPC: 2.919 cumulative IPC: 2.918 (Simulation time: 00 hr 13 min 50 sec)
Heartbeat CPU 0 instructions: 220000002 cycles: 70888099 heartbeat IPC: 2.918 cumulative IPC: 2.918 (Simulation time: 00 hr 14 min 36 sec)
Heartbeat CPU 0 instructions: 230000003 cycles: 73891046 heartbeat IPC: 3.33 cumulative IPC: 2.938 (Simulation time: 00 hr 15 min 27 sec)
Heartbeat CPU 0 instructions: 240000003 cycles: 79787726 heartbeat IPC: 1.696 cumulative IPC: 2.829 (Simulation time: 00 hr 17 min 45 sec)
Heartbeat CPU 0 instructions: 250000003 cycles: 83221401 heartbeat IPC: 2.912 cumulative IPC: 2.833 (Simulation time: 00 hr 19 min 12 sec)
Heartbeat CPU 0 instructions: 260000000 cycles: 86648139 heartbeat IPC: 2.918 cumulative IPC: 2.837 (Simulation time: 00 hr 20 min 44 sec)
Heartbeat CPU 0 instructions: 270000004 cycles: 90074134 heartbeat IPC: 2.919 cumulative IPC: 2.841 (Simulation time: 00 hr 22 min 17 sec)
Heartbeat CPU 0 instructions: 280000000 cycles: 93501961 heartbeat IPC: 2.917 cumulative IPC: 2.844 (Simulation time: 00 hr 23 min 48 sec)
Heartbeat CPU 0 instructions: 290000002 cycles: 96930096 heartbeat IPC: 2.917 cumulative IPC: 2.847 (Simulation time: 00 hr 25 min 21 sec)
Heartbeat CPU 0 instructions: 300000004 cycles: 100353662 heartbeat IPC: 2.921 cumulative IPC: 2.85 (Simulation time: 00 hr 26 min 53 sec)
Heartbeat CPU 0 instructions: 310000002 cycles: 103781785 heartbeat IPC: 2.917 cumulative IPC: 2.852 (Simulation time: 00 hr 28 min 36 sec)
Heartbeat CPU 0 instructions: 320000000 cycles: 107209595 heartbeat IPC: 2.917 cumulative IPC: 2.855 (Simulation time: 00 hr 30 min 15 sec)
Heartbeat CPU 0 instructions: 330000004 cycles: 110636344 heartbeat IPC: 2.918 cumulative IPC: 2.857 (Simulation time: 00 hr 31 min 44 sec)
Heartbeat CPU 0 instructions: 340000000 cycles: 114063601 heartbeat IPC: 2.918 cumulative IPC: 2.859 (Simulation time: 00 hr 33 min 13 sec)
Heartbeat CPU 0 instructions: 350000003 cycles: 117492522 heartbeat IPC: 2.916 cumulative IPC: 2.861 (Simulation time: 00 hr 34 min 47 sec)
Heartbeat CPU 0 instructions: 360000003 cycles: 120920170 heartbeat IPC: 2.917 cumulative IPC: 2.863 (Simulation time: 00 hr 36 min 19 sec)
Heartbeat CPU 0 instructions: 370000004 cycles: 124346562 heartbeat IPC: 2.919 cumulative IPC: 2.864 (Simulation time: 00 hr 37 min 47 sec)
Heartbeat CPU 0 instructions: 380000003 cycles: 127772096 heartbeat IPC: 2.919 cumulative IPC: 2.866 (Simulation time: 00 hr 39 min 08 sec)
Heartbeat CPU 0 instructions: 390000000 cycles: 131193075 heartbeat IPC: 2.923 cumulative IPC: 2.868 (Simulation time: 00 hr 39 min 55 sec)
Heartbeat CPU 0 instructions: 400000002 cycles: 134620455 heartbeat IPC: 2.918 cumulative IPC: 2.869 (Simulation time: 00 hr 40 min 42 sec)
Heartbeat CPU 0 instructions: 410000003 cycles: 138047951 heartbeat IPC: 2.918 cumulative IPC: 2.87 (Simulation time: 00 hr 41 min 29 sec)
Heartbeat CPU 0 instructions: 420000001 cycles: 141475779 heartbeat IPC: 2.917 cumulative IPC: 2.872 (Simulation time: 00 hr 42 min 14 sec)
Heartbeat CPU 0 instructions: 430000001 cycles: 144904529 heartbeat IPC: 2.917 cumulative IPC: 2.873 (Simulation time: 00 hr 43 min 01 sec)
Heartbeat CPU 0 instructions: 440000002 cycles: 148329089 heartbeat IPC: 2.92 cumulative IPC: 2.874 (Simulation time: 00 hr 43 min 49 sec)
Heartbeat CPU 0 instructions: 450000000 cycles: 151232670 heartbeat IPC: 3.444 cumulative IPC: 2.886 (Simulation time: 00 hr 44 min 42 sec)
Heartbeat CPU 0 instructions: 460000002 cycles: 157082138 heartbeat IPC: 1.71 cumulative IPC: 2.838 (Simulation time: 00 hr 46 min 02 sec)
Heartbeat CPU 0 instructions: 470000004 cycles: 160505448 heartbeat IPC: 2.921 cumulative IPC: 2.84 (Simulation time: 00 hr 46 min 51 sec)
Heartbeat CPU 0 instructions: 480000000 cycles: 163933675 heartbeat IPC: 2.917 cumulative IPC: 2.842 (Simulation time: 00 hr 47 min 38 sec)
Heartbeat CPU 0 instructions: 490000000 cycles: 167359050 heartbeat IPC: 2.919 cumulative IPC: 2.844 (Simulation time: 00 hr 48 min 23 sec)
Heartbeat CPU 0 instructions: 500000002 cycles: 170785812 heartbeat IPC: 2.918 cumulative IPC: 2.845 (Simulation time: 00 hr 49 min 09 sec)
Heartbeat CPU 0 instructions: 510000001 cycles: 174214745 heartbeat IPC: 2.916 cumulative IPC: 2.847 (Simulation time: 00 hr 49 min 55 sec)
Heartbeat CPU 0 instructions: 520000003 cycles: 177640076 heartbeat IPC: 2.919 cumulative IPC: 2.848 (Simulation time: 00 hr 50 min 44 sec)
Heartbeat CPU 0 instructions: 530000002 cycles: 181063946 heartbeat IPC: 2.921 cumulative IPC: 2.85 (Simulation time: 00 hr 51 min 29 sec)
Heartbeat CPU 0 instructions: 540000000 cycles: 184492645 heartbeat IPC: 2.917 cumulative IPC: 2.851 (Simulation time: 00 hr 52 min 14 sec)
Heartbeat CPU 0 instructions: 550000000 cycles: 187918886 heartbeat IPC: 2.919 cumulative IPC: 2.852 (Simulation time: 00 hr 53 min 02 sec)
Heartbeat CPU 0 instructions: 560000001 cycles: 191343635 heartbeat IPC: 2.92 cumulative IPC: 2.854 (Simulation time: 00 hr 53 min 52 sec)
Heartbeat CPU 0 instructions: 570000001 cycles: 194769117 heartbeat IPC: 2.919 cumulative IPC: 2.855 (Simulation time: 00 hr 54 min 40 sec)
Heartbeat CPU 0 instructions: 580000000 cycles: 198198906 heartbeat IPC: 2.916 cumulative IPC: 2.856 (Simulation time: 00 hr 55 min 32 sec)
Heartbeat CPU 0 instructions: 590000003 cycles: 201625291 heartbeat IPC: 2.919 cumulative IPC: 2.857 (Simulation time: 00 hr 56 min 19 sec)
*** Reached end of trace: (0, "traces/l1l2cache.champsimtrace")
Heartbeat CPU 0 instructions: 600000001 cycles: 205053427 heartbeat IPC: 2.917 cumulative IPC: 2.858 (Simulation time: 00 hr 57 min 05 sec)
Heartbeat CPU 0 instructions: 610000000 cycles: 209909222 heartbeat IPC: 2.059 cumulative IPC: 2.839 (Simulation time: 00 hr 58 min 10 sec)
Heartbeat CPU 0 instructions: 620000004 cycles: 212650580 heartbeat IPC: 3.648 cumulative IPC: 2.85 (Simulation time: 00 hr 59 min 00 sec)
Heartbeat CPU 0 instructions: 630000004 cycles: 216073656 heartbeat IPC: 2.921 cumulative IPC: 2.851 (Simulation time: 00 hr 59 min 46 sec)
Heartbeat CPU 0 instructions: 640000000 cycles: 219498584 heartbeat IPC: 2.92 cumulative IPC: 2.852 (Simulation time: 01 hr 00 min 32 sec)
Heartbeat CPU 0 instructions: 650000004 cycles: 222927988 heartbeat IPC: 2.916 cumulative IPC: 2.853 (Simulation time: 01 hr 01 min 16 sec)
Simulation finished CPU 0 instructions: 600000004 cycles: 210296714 cumulative IPC: 2.853 (Simulation time: 01 hr 01 min 16 sec)
Simulation complete CPU 0 instructions: 600000004 cycles: 210296714 cumulative IPC: 2.853 (Simulation time: 01 hr 01 min 16 sec)

ChampSim completed all CPUs

=== Simulation ===
CPU 0 runs traces/l1l2cache.champsimtrace
Region of Interest Statistics

CPU 0 cumulative IPC: 2.853 instructions: 600000004 cycles: 210296714
CPU 0 Branch Prediction Accuracy: 93.04% MPKI: 5.913 Average ROB Occupancy at Mispredict: 67.87
Branch type MPKI
BRANCH_DIRECT_JUMP: 9.5e-05
BRANCH_INDIRECT: 0.000282
BRANCH_CONDITIONAL: 5.91
BRANCH_DIRECT_CALL: 3.33e-06
BRANCH_INDIRECT_CALL: 4.83e-05
BRANCH_RETURN: 3.33e-05

LLC TOTAL        ACCESS:     259669 HIT:     175296 MISS:      84373
LLC LOAD         ACCESS:      59445 HIT:      37638 MISS:      21807
LLC RFO          ACCESS:      99913 HIT:      64202 MISS:      35711
LLC PREFETCH     ACCESS:          0 HIT:          0 MISS:          0
LLC WRITE        ACCESS:     100306 HIT:      73456 MISS:      26850
LLC TRANSLATION  ACCESS:          5 HIT:          0 MISS:          5
LLC PREFETCH REQUESTED:          0 ISSUED:          0 USEFUL:          0 USELESS:          0
LLC AVERAGE MISS LATENCY: 280.4 cycles
cpu0_DTLB TOTAL        ACCESS:   82466971 HIT:   82456135 MISS:      10836
cpu0_DTLB LOAD         ACCESS:   82466971 HIT:   82456135 MISS:      10836
cpu0_DTLB RFO          ACCESS:          0 HIT:          0 MISS:          0
cpu0_DTLB PREFETCH     ACCESS:          0 HIT:          0 MISS:          0
cpu0_DTLB WRITE        ACCESS:          0 HIT:          0 MISS:          0
cpu0_DTLB TRANSLATION  ACCESS:          0 HIT:          0 MISS:          0
cpu0_DTLB PREFETCH REQUESTED:          0 ISSUED:          0 USEFUL:          0 USELESS:          0
cpu0_DTLB AVERAGE MISS LATENCY: 5.873 cycles
cpu0_ITLB TOTAL        ACCESS:       5581 HIT:       5363 MISS:        218
cpu0_ITLB LOAD         ACCESS:       5581 HIT:       5363 MISS:        218
cpu0_ITLB RFO          ACCESS:          0 HIT:          0 MISS:          0
cpu0_ITLB PREFETCH     ACCESS:          0 HIT:          0 MISS:          0
cpu0_ITLB WRITE        ACCESS:          0 HIT:          0 MISS:          0
cpu0_ITLB TRANSLATION  ACCESS:          0 HIT:          0 MISS:          0
cpu0_ITLB PREFETCH REQUESTED:          0 ISSUED:          0 USEFUL:          0 USELESS:          0
cpu0_ITLB AVERAGE MISS LATENCY: 6.459 cycles
cpu0_L1D TOTAL        ACCESS:  104779883 HIT:  103156863 MISS:    1623020
cpu0_L1D LOAD         ACCESS:   45469144 HIT:   45029671 MISS:     439473
cpu0_L1D RFO          ACCESS:          0 HIT:          0 MISS:          0
cpu0_L1D PREFETCH     ACCESS:          0 HIT:          0 MISS:          0
cpu0_L1D WRITE        ACCESS:   59310481 HIT:   58126939 MISS:    1183542
cpu0_L1D TRANSLATION  ACCESS:        258 HIT:        253 MISS:          5
cpu0_L1D PREFETCH REQUESTED:          0 ISSUED:          0 USEFUL:          0 USELESS:          0
cpu0_L1D AVERAGE MISS LATENCY: 13.36 cycles
cpu0_L1I TOTAL        ACCESS:       6342 HIT:       4045 MISS:       2297
cpu0_L1I LOAD         ACCESS:       6342 HIT:       4045 MISS:       2297
cpu0_L1I RFO          ACCESS:          0 HIT:          0 MISS:          0
cpu0_L1I PREFETCH     ACCESS:          0 HIT:          0 MISS:          0
cpu0_L1I WRITE        ACCESS:          0 HIT:          0 MISS:          0
cpu0_L1I TRANSLATION  ACCESS:          0 HIT:          0 MISS:          0
cpu0_L1I PREFETCH REQUESTED:          0 ISSUED:          0 USEFUL:          0 USELESS:          0
cpu0_L1I AVERAGE MISS LATENCY: 306.2 cycles
cpu0_L2C TOTAL        ACCESS:     265743 HIT:     106359 MISS:     159384
cpu0_L2C LOAD         ACCESS:      63733 HIT:       4288 MISS:      59445
cpu0_L2C RFO          ACCESS:     100739 HIT:        826 MISS:      99913
cpu0_L2C PREFETCH     ACCESS:          0 HIT:          0 MISS:          0
cpu0_L2C WRITE        ACCESS:     101266 HIT:     101245 MISS:         21
cpu0_L2C TRANSLATION  ACCESS:          5 HIT:          0 MISS:          5
cpu0_L2C PREFETCH REQUESTED:          0 ISSUED:          0 USEFUL:          0 USELESS:          0
cpu0_L2C AVERAGE MISS LATENCY: 168.8 cycles
cpu0_STLB TOTAL        ACCESS:       3913 HIT:       3656 MISS:        257
cpu0_STLB LOAD         ACCESS:       3913 HIT:       3656 MISS:        257
cpu0_STLB RFO          ACCESS:          0 HIT:          0 MISS:          0
cpu0_STLB PREFETCH     ACCESS:          0 HIT:          0 MISS:          0
cpu0_STLB WRITE        ACCESS:          0 HIT:          0 MISS:          0
cpu0_STLB TRANSLATION  ACCESS:          0 HIT:          0 MISS:          0
cpu0_STLB PREFETCH REQUESTED:          0 ISSUED:          0 USEFUL:          0 USELESS:          0
cpu0_STLB AVERAGE MISS LATENCY: 218.4 cycles

DRAM Statistics

Channel 0 RQ ROW_BUFFER_HIT:      34157
  ROW_BUFFER_MISS:      23366
 AVG DBUS CONGESTED CYCLE: 3.925
WQ ROW_BUFFER_HIT: Channel 0 
  ROW_BUFFER_MISS:      14528
  FULL:      11654
