WARNING: physical memory size is smaller than virtual memory size.

*** ChampSim Multicore Out-of-Order Simulator ***
Warmup Instructions: 50000000
Simulation Instructions: 600000000
Number of CPUs: 1
Page size: 4096

Off-chip DRAM Size: 4 GiB Channels: 1 Width: 64-bit Data Race: 3200 MT/s
Heartbeat CPU 0 instructions: 10000004 cycles: 2777663 heartbeat IPC: 3.6 cumulative IPC: 3.6 (Simulation time: 00 hr 00 min 59 sec)
Heartbeat CPU 0 instructions: 20000001 cycles: 5634805 heartbeat IPC: 3.5 cumulative IPC: 3.549 (Simulation time: 00 hr 01 min 56 sec)
Heartbeat CPU 0 instructions: 30000000 cycles: 8491948 heartbeat IPC: 3.5 cumulative IPC: 3.533 (Simulation time: 00 hr 02 min 55 sec)
Heartbeat CPU 0 instructions: 40000003 cycles: 11120601 heartbeat IPC: 3.804 cumulative IPC: 3.597 (Simulation time: 00 hr 03 min 48 sec)
Heartbeat CPU 0 instructions: 50000003 cycles: 13620601 heartbeat IPC: 4 cumulative IPC: 3.671 (Simulation time: 00 hr 04 min 41 sec)
Warmup finished CPU 0 instructions: 50000003 cycles: 13620602 cumulative IPC: 3.671 (Simulation time: 00 hr 04 min 41 sec)
Warmup complete CPU 0 instructions: 50000003 cycles: 13620602 cumulative IPC: 3.671 (Simulation time: 00 hr 04 min 41 sec)
Heartbeat CPU 0 instructions: 60000002 cycles: 16295256 heartbeat IPC: 3.739 cumulative IPC: 3.739 (Simulation time: 00 hr 05 min 43 sec)
Heartbeat CPU 0 instructions: 70000001 cycles: 18969955 heartbeat IPC: 3.739 cumulative IPC: 3.739 (Simulation time: 00 hr 06 min 44 sec)
Heartbeat CPU 0 instructions: 80000000 cycles: 21644609 heartbeat IPC: 3.739 cumulative IPC: 3.739 (Simulation time: 00 hr 07 min 44 sec)
Heartbeat CPU 0 instructions: 90000003 cycles: 24320489 heartbeat IPC: 3.737 cumulative IPC: 3.738 (Simulation time: 00 hr 08 min 48 sec)
Heartbeat CPU 0 instructions: 100000003 cycles: 26995144 heartbeat IPC: 3.739 cumulative IPC: 3.738 (Simulation time: 00 hr 09 min 48 sec)
Heartbeat CPU 0 instructions: 110000004 cycles: 29669845 heartbeat IPC: 3.739 cumulative IPC: 3.738 (Simulation time: 00 hr 10 min 47 sec)
Heartbeat CPU 0 instructions: 120000003 cycles: 32344528 heartbeat IPC: 3.739 cumulative IPC: 3.739 (Simulation time: 00 hr 11 min 48 sec)
Heartbeat CPU 0 instructions: 130000002 cycles: 35019198 heartbeat IPC: 3.739 cumulative IPC: 3.739 (Simulation time: 00 hr 12 min 48 sec)
Heartbeat CPU 0 instructions: 140000002 cycles: 37694529 heartbeat IPC: 3.738 cumulative IPC: 3.738 (Simulation time: 00 hr 13 min 47 sec)
Heartbeat CPU 0 instructions: 150000000 cycles: 40369184 heartbeat IPC: 3.739 cumulative IPC: 3.739 (Simulation time: 00 hr 14 min 48 sec)
Heartbeat CPU 0 instructions: 160000001 cycles: 43043885 heartbeat IPC: 3.739 cumulative IPC: 3.739 (Simulation time: 00 hr 15 min 50 sec)
Heartbeat CPU 0 instructions: 170000004 cycles: 45718539 heartbeat IPC: 3.739 cumulative IPC: 3.739 (Simulation time: 00 hr 17 min 14 sec)
Heartbeat CPU 0 instructions: 180000000 cycles: 48393619 heartbeat IPC: 3.738 cumulative IPC: 3.739 (Simulation time: 00 hr 18 min 39 sec)
Heartbeat CPU 0 instructions: 190000004 cycles: 51068318 heartbeat IPC: 3.739 cumulative IPC: 3.739 (Simulation time: 00 hr 21 min 03 sec)
Heartbeat CPU 0 instructions: 200000002 cycles: 53742975 heartbeat IPC: 3.739 cumulative IPC: 3.739 (Simulation time: 00 hr 23 min 10 sec)
Heartbeat CPU 0 instructions: 210000003 cycles: 56417676 heartbeat IPC: 3.739 cumulative IPC: 3.739 (Simulation time: 00 hr 25 min 24 sec)
Heartbeat CPU 0 instructions: 220000001 cycles: 59092329 heartbeat IPC: 3.739 cumulative IPC: 3.739 (Simulation time: 00 hr 27 min 27 sec)
Heartbeat CPU 0 instructions: 230000002 cycles: 61767403 heartbeat IPC: 3.738 cumulative IPC: 3.739 (Simulation time: 00 hr 29 min 20 sec)
Heartbeat CPU 0 instructions: 240000003 cycles: 64442057 heartbeat IPC: 3.739 cumulative IPC: 3.739 (Simulation time: 00 hr 32 min 02 sec)
Heartbeat CPU 0 instructions: 250000004 cycles: 67116759 heartbeat IPC: 3.739 cumulative IPC: 3.739 (Simulation time: 00 hr 34 min 45 sec)
Heartbeat CPU 0 instructions: 260000000 cycles: 69791455 heartbeat IPC: 3.739 cumulative IPC: 3.739 (Simulation time: 00 hr 37 min 14 sec)
Heartbeat CPU 0 instructions: 270000003 cycles: 72467647 heartbeat IPC: 3.737 cumulative IPC: 3.739 (Simulation time: 00 hr 39 min 25 sec)
Heartbeat CPU 0 instructions: 280000001 cycles: 75142346 heartbeat IPC: 3.739 cumulative IPC: 3.739 (Simulation time: 00 hr 41 min 38 sec)
Heartbeat CPU 0 instructions: 290000000 cycles: 77817000 heartbeat IPC: 3.739 cumulative IPC: 3.739 (Simulation time: 00 hr 44 min 18 sec)
Heartbeat CPU 0 instructions: 300000001 cycles: 80491702 heartbeat IPC: 3.739 cumulative IPC: 3.739 (Simulation time: 00 hr 46 min 48 sec)
Heartbeat CPU 0 instructions: 310000000 cycles: 83166356 heartbeat IPC: 3.739 cumulative IPC: 3.739 (Simulation time: 00 hr 48 min 53 sec)
Heartbeat CPU 0 instructions: 320000000 cycles: 85841430 heartbeat IPC: 3.738 cumulative IPC: 3.739 (Simulation time: 00 hr 50 min 54 sec)
Heartbeat CPU 0 instructions: 330000002 cycles: 88516128 heartbeat IPC: 3.739 cumulative IPC: 3.739 (Simulation time: 00 hr 53 min 46 sec)
Heartbeat CPU 0 instructions: 340000002 cycles: 91190784 heartbeat IPC: 3.739 cumulative IPC: 3.739 (Simulation time: 00 hr 56 min 03 sec)
Heartbeat CPU 0 instructions: 350000003 cycles: 93865486 heartbeat IPC: 3.739 cumulative IPC: 3.739 (Simulation time: 00 hr 58 min 36 sec)
Heartbeat CPU 0 instructions: 360000001 cycles: 96540949 heartbeat IPC: 3.738 cumulative IPC: 3.739 (Simulation time: 01 hr 01 min 14 sec)
Heartbeat CPU 0 instructions: 370000002 cycles: 99215650 heartbeat IPC: 3.739 cumulative IPC: 3.739 (Simulation time: 01 hr 03 min 36 sec)
Heartbeat CPU 0 instructions: 380000001 cycles: 101890317 heartbeat IPC: 3.739 cumulative IPC: 3.739 (Simulation time: 01 hr 05 min 52 sec)
Heartbeat CPU 0 instructions: 390000004 cycles: 104565004 heartbeat IPC: 3.739 cumulative IPC: 3.739 (Simulation time: 01 hr 07 min 57 sec)
Heartbeat CPU 0 instructions: 400000000 cycles: 107239702 heartbeat IPC: 3.739 cumulative IPC: 3.739 (Simulation time: 01 hr 10 min 51 sec)
Heartbeat CPU 0 instructions: 410000003 cycles: 109915114 heartbeat IPC: 3.738 cumulative IPC: 3.739 (Simulation time: 01 hr 13 min 00 sec)
Heartbeat CPU 0 instructions: 420000003 cycles: 117454385 heartbeat IPC: 1.326 cumulative IPC: 3.563 (Simulation time: 01 hr 17 min 19 sec)
Heartbeat CPU 0 instructions: 430000002 cycles: 136492623 heartbeat IPC: 0.5253 cumulative IPC: 3.093 (Simulation time: 01 hr 27 min 46 sec)
Heartbeat CPU 0 instructions: 440000004 cycles: 155514540 heartbeat IPC: 0.5257 cumulative IPC: 2.749 (Simulation time: 01 hr 37 min 54 sec)
Heartbeat CPU 0 instructions: 450000000 cycles: 174555063 heartbeat IPC: 0.5252 cumulative IPC: 2.485 (Simulation time: 01 hr 48 min 30 sec)
Heartbeat CPU 0 instructions: 460000002 cycles: 193509098 heartbeat IPC: 0.5276 cumulative IPC: 2.279 (Simulation time: 01 hr 58 min 47 sec)
Heartbeat CPU 0 instructions: 470000003 cycles: 212530435 heartbeat IPC: 0.5257 cumulative IPC: 2.112 (Simulation time: 02 hr 09 min 10 sec)
Heartbeat CPU 0 instructions: 480000003 cycles: 231517186 heartbeat IPC: 0.5267 cumulative IPC: 1.973 (Simulation time: 02 hr 19 min 31 sec)
Heartbeat CPU 0 instructions: 490000004 cycles: 250507755 heartbeat IPC: 0.5266 cumulative IPC: 1.857 (Simulation time: 02 hr 29 min 58 sec)
Heartbeat CPU 0 instructions: 500000003 cycles: 269526172 heartbeat IPC: 0.5258 cumulative IPC: 1.758 (Simulation time: 02 hr 41 min 08 sec)
Heartbeat CPU 0 instructions: 510000002 cycles: 288518945 heartbeat IPC: 0.5265 cumulative IPC: 1.673 (Simulation time: 02 hr 51 min 55 sec)
Heartbeat CPU 0 instructions: 520000003 cycles: 307530288 heartbeat IPC: 0.526 cumulative IPC: 1.599 (Simulation time: 03 hr 03 min 01 sec)
Heartbeat CPU 0 instructions: 530000004 cycles: 326479409 heartbeat IPC: 0.5277 cumulative IPC: 1.534 (Simulation time: 03 hr 14 min 35 sec)
Heartbeat CPU 0 instructions: 540000004 cycles: 345442450 heartbeat IPC: 0.5273 cumulative IPC: 1.477 (Simulation time: 03 hr 25 min 59 sec)
Heartbeat CPU 0 instructions: 550000000 cycles: 364471456 heartbeat IPC: 0.5255 cumulative IPC: 1.425 (Simulation time: 03 hr 36 min 48 sec)
Heartbeat CPU 0 instructions: 560000002 cycles: 383470150 heartbeat IPC: 0.5264 cumulative IPC: 1.379 (Simulation time: 03 hr 44 min 15 sec)
Heartbeat CPU 0 instructions: 570000002 cycles: 402481137 heartbeat IPC: 0.526 cumulative IPC: 1.337 (Simulation time: 03 hr 47 min 31 sec)
Heartbeat CPU 0 instructions: 580000004 cycles: 421502952 heartbeat IPC: 0.5257 cumulative IPC: 1.299 (Simulation time: 03 hr 50 min 37 sec)
Heartbeat CPU 0 instructions: 590000000 cycles: 440515431 heartbeat IPC: 0.526 cumulative IPC: 1.265 (Simulation time: 03 hr 53 min 47 sec)
*** Reached end of trace: (0, "traces/l1l2l3cache.champsimtrace")
Heartbeat CPU 0 instructions: 600000000 cycles: 459518820 heartbeat IPC: 0.5262 cumulative IPC: 1.233 (Simulation time: 03 hr 57 min 16 sec)
Heartbeat CPU 0 instructions: 610000002 cycles: 468448541 heartbeat IPC: 1.12 cumulative IPC: 1.231 (Simulation time: 03 hr 58 min 56 sec)
Heartbeat CPU 0 instructions: 620000001 cycles: 483896070 heartbeat IPC: 0.6474 cumulative IPC: 1.212 (Simulation time: 04 hr 01 min 35 sec)
Heartbeat CPU 0 instructions: 630000004 cycles: 499344097 heartbeat IPC: 0.6473 cumulative IPC: 1.194 (Simulation time: 04 hr 04 min 05 sec)
Heartbeat CPU 0 instructions: 640000000 cycles: 506597409 heartbeat IPC: 1.379 cumulative IPC: 1.197 (Simulation time: 04 hr 05 min 20 sec)
Heartbeat CPU 0 instructions: 650000003 cycles: 509272094 heartbeat IPC: 3.739 cumulative IPC: 1.211 (Simulation time: 04 hr 05 min 59 sec)
Simulation finished CPU 0 instructions: 600000000 cycles: 495651493 cumulative IPC: 1.211 (Simulation time: 04 hr 05 min 59 sec)
Simulation complete CPU 0 instructions: 600000000 cycles: 495651493 cumulative IPC: 1.211 (Simulation time: 04 hr 05 min 59 sec)

ChampSim completed all CPUs

=== Simulation ===
CPU 0 runs traces/l1l2l3cache.champsimtrace
Region of Interest Statistics

CPU 0 cumulative IPC: 1.211 instructions: 600000000 cycles: 495651493
CPU 0 Branch Prediction Accuracy: 99.5% MPKI: 1.069 Average ROB Occupancy at Mispredict: 149
Branch type MPKI
BRANCH_DIRECT_JUMP: 8.5e-05
BRANCH_INDIRECT: 0.000237
BRANCH_CONDITIONAL: 1.07
BRANCH_DIRECT_CALL: 5e-06
BRANCH_INDIRECT_CALL: 4.67e-05
BRANCH_RETURN: 3.67e-05

LLC TOTAL        ACCESS:    3095811 HIT:     253806 MISS:    2842005
LLC LOAD         ACCESS:    1954448 HIT:     158867 MISS:    1795581
LLC RFO          ACCESS:     561710 HIT:      44179 MISS:     517531
LLC PREFETCH     ACCESS:       6341 HIT:       5296 MISS:       1045
LLC WRITE        ACCESS:     562066 HIT:      45004 MISS:     517062
LLC TRANSLATION  ACCESS:      11246 HIT:        460 MISS:      10786
LLC PREFETCH REQUESTED:       6341 ISSUED:       6341 USEFUL:        394 USELESS:         42
LLC AVERAGE MISS LATENCY: 571.8 cycles
cpu0_DTLB TOTAL        ACCESS:  130596248 HIT:  128581496 MISS:    2014752
cpu0_DTLB LOAD         ACCESS:  130596248 HIT:  128581496 MISS:    2014752
cpu0_DTLB RFO          ACCESS:          0 HIT:          0 MISS:          0
cpu0_DTLB PREFETCH     ACCESS:          0 HIT:          0 MISS:          0
cpu0_DTLB WRITE        ACCESS:          0 HIT:          0 MISS:          0
cpu0_DTLB TRANSLATION  ACCESS:          0 HIT:          0 MISS:          0
cpu0_DTLB PREFETCH REQUESTED:          0 ISSUED:          0 USEFUL:          0 USELESS:          0
cpu0_DTLB AVERAGE MISS LATENCY: 20.24 cycles
cpu0_ITLB TOTAL        ACCESS:       4980 HIT:       4751 MISS:        229
cpu0_ITLB LOAD         ACCESS:       4980 HIT:       4751 MISS:        229
cpu0_ITLB RFO          ACCESS:          0 HIT:          0 MISS:          0
cpu0_ITLB PREFETCH     ACCESS:          0 HIT:          0 MISS:          0
cpu0_ITLB WRITE        ACCESS:          0 HIT:          0 MISS:          0
cpu0_ITLB TRANSLATION  ACCESS:          0 HIT:          0 MISS:          0
cpu0_ITLB PREFETCH REQUESTED:          0 ISSUED:          0 USEFUL:          0 USELESS:          0
cpu0_ITLB AVERAGE MISS LATENCY: 80.79 cycles
cpu0_L1D TOTAL        ACCESS:  178131149 HIT:  166865433 MISS:   11265716
cpu0_L1D LOAD         ACCESS:   69808080 HIT:   67768545 MISS:    2039535
cpu0_L1D RFO          ACCESS:          0 HIT:          0 MISS:          0
cpu0_L1D PREFETCH     ACCESS:          0 HIT:          0 MISS:          0
cpu0_L1D WRITE        ACCESS:  107017577 HIT:   98537619 MISS:    8479958
cpu0_L1D TRANSLATION  ACCESS:    1305492 HIT:     559269 MISS:     746223
cpu0_L1D PREFETCH REQUESTED:          0 ISSUED:          0 USEFUL:          0 USELESS:          0
cpu0_L1D AVERAGE MISS LATENCY: 144 cycles
cpu0_L1I TOTAL        ACCESS:       5686 HIT:       3295 MISS:       2391
cpu0_L1I LOAD         ACCESS:       5686 HIT:       3295 MISS:       2391
cpu0_L1I RFO          ACCESS:          0 HIT:          0 MISS:          0
cpu0_L1I PREFETCH     ACCESS:          0 HIT:          0 MISS:          0
cpu0_L1I WRITE        ACCESS:          0 HIT:          0 MISS:          0
cpu0_L1I TRANSLATION  ACCESS:          0 HIT:          0 MISS:          0
cpu0_L1I PREFETCH REQUESTED:          0 ISSUED:          0 USEFUL:          0 USELESS:          0
cpu0_L1I AVERAGE MISS LATENCY: 150.4 cycles
cpu0_L2C TOTAL        ACCESS:    3903749 HIT:    1376327 MISS:    2527422
cpu0_L2C LOAD         ACCESS:    2009350 HIT:      54902 MISS:    1954448
cpu0_L2C RFO          ACCESS:     573518 HIT:      11808 MISS:     561710
cpu0_L2C PREFETCH     ACCESS:          0 HIT:          0 MISS:          0
cpu0_L2C WRITE        ACCESS:     574680 HIT:     574662 MISS:         18
cpu0_L2C TRANSLATION  ACCESS:     746201 HIT:     734955 MISS:      11246
cpu0_L2C PREFETCH REQUESTED:          0 ISSUED:          0 USEFUL:          0 USELESS:          0
cpu0_L2C AVERAGE MISS LATENCY: 663.9 cycles
cpu0_STLB TOTAL        ACCESS:    1982635 HIT:     677151 MISS:    1305484
cpu0_STLB LOAD         ACCESS:    1982635 HIT:     677151 MISS:    1305484
cpu0_STLB RFO          ACCESS:          0 HIT:          0 MISS:          0
cpu0_STLB PREFETCH     ACCESS:          0 HIT:          0 MISS:          0
cpu0_STLB WRITE        ACCESS:          0 HIT:          0 MISS:          0
cpu0_STLB TRANSLATION  ACCESS:          0 HIT:          0 MISS:          0
cpu0_STLB PREFETCH REQUESTED:          0 ISSUED:          0 USEFUL:          0 USELESS:          0
cpu0_STLB AVERAGE MISS LATENCY: 18.16 cycles

DRAM Statistics

Channel 0 RQ ROW_BUFFER_HIT:      87446
  ROW_BUFFER_MISS:    2236360
 AVG DBUS CONGESTED CYCLE: 3.944
WQ ROW_BUFFER_HIT: Channel 0 
  ROW_BUFFER_MISS:     175709
  FULL:     341821
