WARNING: physical memory size is smaller than virtual memory size.

*** ChampSim Multicore Out-of-Order Simulator ***
Warmup Instructions: 50000000
Simulation Instructions: 600000000
Number of CPUs: 1
Page size: 4096

Off-chip DRAM Size: 4 GiB Channels: 1 Width: 64-bit Data Race: 3200 MT/s
Heartbeat CPU 0 instructions: 10000004 cycles: 2777663 heartbeat IPC: 3.6 cumulative IPC: 3.6 (Simulation time: 00 hr 00 min 40 sec)
Heartbeat CPU 0 instructions: 20000001 cycles: 5634805 heartbeat IPC: 3.5 cumulative IPC: 3.549 (Simulation time: 00 hr 01 min 18 sec)
Heartbeat CPU 0 instructions: 30000000 cycles: 8491948 heartbeat IPC: 3.5 cumulative IPC: 3.533 (Simulation time: 00 hr 01 min 57 sec)
Heartbeat CPU 0 instructions: 40000003 cycles: 11120601 heartbeat IPC: 3.804 cumulative IPC: 3.597 (Simulation time: 00 hr 02 min 42 sec)
Heartbeat CPU 0 instructions: 50000003 cycles: 13620601 heartbeat IPC: 4 cumulative IPC: 3.671 (Simulation time: 00 hr 03 min 42 sec)
Warmup finished CPU 0 instructions: 50000003 cycles: 13620602 cumulative IPC: 3.671 (Simulation time: 00 hr 03 min 42 sec)
Warmup complete CPU 0 instructions: 50000003 cycles: 13620602 cumulative IPC: 3.671 (Simulation time: 00 hr 03 min 42 sec)
Heartbeat CPU 0 instructions: 60000002 cycles: 16295256 heartbeat IPC: 3.739 cumulative IPC: 3.739 (Simulation time: 00 hr 04 min 52 sec)
Heartbeat CPU 0 instructions: 70000001 cycles: 18969955 heartbeat IPC: 3.739 cumulative IPC: 3.739 (Simulation time: 00 hr 05 min 57 sec)
Heartbeat CPU 0 instructions: 80000000 cycles: 21644609 heartbeat IPC: 3.739 cumulative IPC: 3.739 (Simulation time: 00 hr 06 min 57 sec)
Heartbeat CPU 0 instructions: 90000003 cycles: 24319671 heartbeat IPC: 3.738 cumulative IPC: 3.739 (Simulation time: 00 hr 07 min 54 sec)
Heartbeat CPU 0 instructions: 100000003 cycles: 26994326 heartbeat IPC: 3.739 cumulative IPC: 3.739 (Simulation time: 00 hr 08 min 46 sec)
Heartbeat CPU 0 instructions: 110000004 cycles: 29669027 heartbeat IPC: 3.739 cumulative IPC: 3.739 (Simulation time: 00 hr 09 min 37 sec)
Heartbeat CPU 0 instructions: 120000003 cycles: 32343710 heartbeat IPC: 3.739 cumulative IPC: 3.739 (Simulation time: 00 hr 10 min 28 sec)
Heartbeat CPU 0 instructions: 130000002 cycles: 35018380 heartbeat IPC: 3.739 cumulative IPC: 3.739 (Simulation time: 00 hr 11 min 21 sec)
Heartbeat CPU 0 instructions: 140000002 cycles: 37693533 heartbeat IPC: 3.738 cumulative IPC: 3.739 (Simulation time: 00 hr 12 min 11 sec)
Heartbeat CPU 0 instructions: 150000000 cycles: 40368188 heartbeat IPC: 3.739 cumulative IPC: 3.739 (Simulation time: 00 hr 13 min 03 sec)
Heartbeat CPU 0 instructions: 160000001 cycles: 43042889 heartbeat IPC: 3.739 cumulative IPC: 3.739 (Simulation time: 00 hr 13 min 54 sec)
Heartbeat CPU 0 instructions: 170000004 cycles: 45717543 heartbeat IPC: 3.739 cumulative IPC: 3.739 (Simulation time: 00 hr 14 min 44 sec)
Heartbeat CPU 0 instructions: 180000000 cycles: 48393078 heartbeat IPC: 3.738 cumulative IPC: 3.739 (Simulation time: 00 hr 15 min 32 sec)
Heartbeat CPU 0 instructions: 190000004 cycles: 51067777 heartbeat IPC: 3.739 cumulative IPC: 3.739 (Simulation time: 00 hr 16 min 23 sec)
Heartbeat CPU 0 instructions: 200000002 cycles: 53742434 heartbeat IPC: 3.739 cumulative IPC: 3.739 (Simulation time: 00 hr 17 min 15 sec)
Heartbeat CPU 0 instructions: 210000003 cycles: 56417135 heartbeat IPC: 3.739 cumulative IPC: 3.739 (Simulation time: 00 hr 18 min 05 sec)
Heartbeat CPU 0 instructions: 220000001 cycles: 59091788 heartbeat IPC: 3.739 cumulative IPC: 3.739 (Simulation time: 00 hr 18 min 54 sec)
Heartbeat CPU 0 instructions: 230000002 cycles: 61766861 heartbeat IPC: 3.738 cumulative IPC: 3.739 (Simulation time: 00 hr 19 min 43 sec)
Heartbeat CPU 0 instructions: 240000003 cycles: 64441515 heartbeat IPC: 3.739 cumulative IPC: 3.739 (Simulation time: 00 hr 20 min 33 sec)
Heartbeat CPU 0 instructions: 250000004 cycles: 67116217 heartbeat IPC: 3.739 cumulative IPC: 3.739 (Simulation time: 00 hr 21 min 22 sec)
Heartbeat CPU 0 instructions: 260000000 cycles: 69790913 heartbeat IPC: 3.739 cumulative IPC: 3.739 (Simulation time: 00 hr 22 min 10 sec)
Heartbeat CPU 0 instructions: 270000003 cycles: 72465927 heartbeat IPC: 3.738 cumulative IPC: 3.739 (Simulation time: 00 hr 22 min 57 sec)
Heartbeat CPU 0 instructions: 280000001 cycles: 75140626 heartbeat IPC: 3.739 cumulative IPC: 3.739 (Simulation time: 00 hr 23 min 47 sec)
Heartbeat CPU 0 instructions: 290000000 cycles: 77815280 heartbeat IPC: 3.739 cumulative IPC: 3.739 (Simulation time: 00 hr 24 min 33 sec)
Heartbeat CPU 0 instructions: 300000001 cycles: 80489982 heartbeat IPC: 3.739 cumulative IPC: 3.739 (Simulation time: 00 hr 25 min 24 sec)
Heartbeat CPU 0 instructions: 310000000 cycles: 83164636 heartbeat IPC: 3.739 cumulative IPC: 3.739 (Simulation time: 00 hr 26 min 09 sec)
Heartbeat CPU 0 instructions: 320000000 cycles: 85839710 heartbeat IPC: 3.738 cumulative IPC: 3.739 (Simulation time: 00 hr 26 min 57 sec)
Heartbeat CPU 0 instructions: 330000002 cycles: 88514408 heartbeat IPC: 3.739 cumulative IPC: 3.739 (Simulation time: 00 hr 27 min 44 sec)
Heartbeat CPU 0 instructions: 340000002 cycles: 91189064 heartbeat IPC: 3.739 cumulative IPC: 3.739 (Simulation time: 00 hr 28 min 29 sec)
Heartbeat CPU 0 instructions: 350000003 cycles: 93863766 heartbeat IPC: 3.739 cumulative IPC: 3.739 (Simulation time: 00 hr 29 min 12 sec)
Heartbeat CPU 0 instructions: 360000001 cycles: 96538783 heartbeat IPC: 3.738 cumulative IPC: 3.739 (Simulation time: 00 hr 29 min 55 sec)
Heartbeat CPU 0 instructions: 370000002 cycles: 99213484 heartbeat IPC: 3.739 cumulative IPC: 3.739 (Simulation time: 00 hr 30 min 41 sec)
Heartbeat CPU 0 instructions: 380000001 cycles: 101888151 heartbeat IPC: 3.739 cumulative IPC: 3.739 (Simulation time: 00 hr 31 min 26 sec)
Heartbeat CPU 0 instructions: 390000004 cycles: 104562838 heartbeat IPC: 3.739 cumulative IPC: 3.739 (Simulation time: 00 hr 32 min 09 sec)
Heartbeat CPU 0 instructions: 400000000 cycles: 107237536 heartbeat IPC: 3.739 cumulative IPC: 3.739 (Simulation time: 00 hr 32 min 52 sec)
Heartbeat CPU 0 instructions: 410000003 cycles: 109912566 heartbeat IPC: 3.738 cumulative IPC: 3.739 (Simulation time: 00 hr 33 min 35 sec)
Heartbeat CPU 0 instructions: 420000000 cycles: 120225904 heartbeat IPC: 0.9696 cumulative IPC: 3.471 (Simulation time: 00 hr 35 min 21 sec)
Heartbeat CPU 0 instructions: 430000003 cycles: 142212916 heartbeat IPC: 0.4548 cumulative IPC: 2.955 (Simulation time: 00 hr 38 min 49 sec)
Heartbeat CPU 0 instructions: 440000004 cycles: 160834279 heartbeat IPC: 0.537 cumulative IPC: 2.649 (Simulation time: 00 hr 41 min 45 sec)
Heartbeat CPU 0 instructions: 450000001 cycles: 179407280 heartbeat IPC: 0.5384 cumulative IPC: 2.413 (Simulation time: 00 hr 44 min 42 sec)
Heartbeat CPU 0 instructions: 460000001 cycles: 197954694 heartbeat IPC: 0.5392 cumulative IPC: 2.224 (Simulation time: 00 hr 47 min 39 sec)
Heartbeat CPU 0 instructions: 470000003 cycles: 216508069 heartbeat IPC: 0.539 cumulative IPC: 2.07 (Simulation time: 00 hr 50 min 37 sec)
Heartbeat CPU 0 instructions: 480000003 cycles: 235042646 heartbeat IPC: 0.5395 cumulative IPC: 1.942 (Simulation time: 00 hr 53 min 05 sec)
Heartbeat CPU 0 instructions: 490000004 cycles: 253572015 heartbeat IPC: 0.5397 cumulative IPC: 1.834 (Simulation time: 00 hr 55 min 17 sec)
Heartbeat CPU 0 instructions: 500000001 cycles: 272103106 heartbeat IPC: 0.5396 cumulative IPC: 1.741 (Simulation time: 00 hr 57 min 30 sec)
Heartbeat CPU 0 instructions: 510000002 cycles: 290625660 heartbeat IPC: 0.5399 cumulative IPC: 1.661 (Simulation time: 00 hr 59 min 59 sec)
Heartbeat CPU 0 instructions: 520000003 cycles: 309132253 heartbeat IPC: 0.5403 cumulative IPC: 1.59 (Simulation time: 01 hr 02 min 25 sec)
Heartbeat CPU 0 instructions: 530000003 cycles: 327674281 heartbeat IPC: 0.5393 cumulative IPC: 1.528 (Simulation time: 01 hr 04 min 48 sec)
Heartbeat CPU 0 instructions: 540000004 cycles: 346188958 heartbeat IPC: 0.5401 cumulative IPC: 1.473 (Simulation time: 01 hr 07 min 06 sec)
Heartbeat CPU 0 instructions: 550000000 cycles: 364718756 heartbeat IPC: 0.5397 cumulative IPC: 1.424 (Simulation time: 01 hr 09 min 20 sec)
Heartbeat CPU 0 instructions: 560000002 cycles: 383257407 heartbeat IPC: 0.5394 cumulative IPC: 1.38 (Simulation time: 01 hr 11 min 34 sec)
Heartbeat CPU 0 instructions: 570000002 cycles: 401843064 heartbeat IPC: 0.538 cumulative IPC: 1.339 (Simulation time: 01 hr 14 min 33 sec)
Heartbeat CPU 0 instructions: 580000000 cycles: 420428682 heartbeat IPC: 0.5381 cumulative IPC: 1.303 (Simulation time: 01 hr 17 min 36 sec)
Heartbeat CPU 0 instructions: 590000000 cycles: 439001491 heartbeat IPC: 0.5384 cumulative IPC: 1.269 (Simulation time: 01 hr 20 min 17 sec)
*** Reached end of trace: (0, "traces/l1l2l3cache.champsimtrace")
Heartbeat CPU 0 instructions: 600000000 cycles: 457532582 heartbeat IPC: 0.5396 cumulative IPC: 1.239 (Simulation time: 01 hr 22 min 31 sec)
Heartbeat CPU 0 instructions: 610000004 cycles: 470959837 heartbeat IPC: 0.7448 cumulative IPC: 1.224 (Simulation time: 01 hr 24 min 11 sec)
Heartbeat CPU 0 instructions: 620000001 cycles: 485584337 heartbeat IPC: 0.6838 cumulative IPC: 1.208 (Simulation time: 01 hr 25 min 51 sec)
Heartbeat CPU 0 instructions: 630000000 cycles: 500134383 heartbeat IPC: 0.6873 cumulative IPC: 1.192 (Simulation time: 01 hr 27 min 20 sec)
Heartbeat CPU 0 instructions: 640000000 cycles: 507165266 heartbeat IPC: 1.422 cumulative IPC: 1.195 (Simulation time: 01 hr 28 min 00 sec)
Heartbeat CPU 0 instructions: 650000003 cycles: 509839951 heartbeat IPC: 3.739 cumulative IPC: 1.209 (Simulation time: 01 hr 28 min 24 sec)
Simulation finished CPU 0 instructions: 600000000 cycles: 496219350 cumulative IPC: 1.209 (Simulation time: 01 hr 28 min 24 sec)
Simulation complete CPU 0 instructions: 600000000 cycles: 496219350 cumulative IPC: 1.209 (Simulation time: 01 hr 28 min 24 sec)

ChampSim completed all CPUs

=== Simulation ===
CPU 0 runs traces/l1l2l3cache.champsimtrace
Region of Interest Statistics

CPU 0 cumulative IPC: 1.209 instructions: 600000000 cycles: 496219350
CPU 0 Branch Prediction Accuracy: 99.5% MPKI: 1.069 Average ROB Occupancy at Mispredict: 148.7
Branch type MPKI
BRANCH_DIRECT_JUMP: 8.5e-05
BRANCH_INDIRECT: 0.000237
BRANCH_CONDITIONAL: 1.07
BRANCH_DIRECT_CALL: 5e-06
BRANCH_INDIRECT_CALL: 4.67e-05
BRANCH_RETURN: 3.67e-05

LLC TOTAL        ACCESS:    3089472 HIT:     435708 MISS:    2653764
LLC LOAD         ACCESS:    1954444 HIT:     218277 MISS:    1736167
LLC RFO          ACCESS:     561713 HIT:      24252 MISS:     537461
LLC PREFETCH     ACCESS:          0 HIT:          0 MISS:          0
LLC WRITE        ACCESS:     562069 HIT:     184159 MISS:     377910
LLC TRANSLATION  ACCESS:      11246 HIT:       9020 MISS:       2226
LLC PREFETCH REQUESTED:          0 ISSUED:          0 USEFUL:          0 USELESS:          0
LLC AVERAGE MISS LATENCY: 608 cycles
cpu0_DTLB TOTAL        ACCESS:  130082464 HIT:  128068120 MISS:    2014344
cpu0_DTLB LOAD         ACCESS:  130082464 HIT:  128068120 MISS:    2014344
cpu0_DTLB RFO          ACCESS:          0 HIT:          0 MISS:          0
cpu0_DTLB PREFETCH     ACCESS:          0 HIT:          0 MISS:          0
cpu0_DTLB WRITE        ACCESS:          0 HIT:          0 MISS:          0
cpu0_DTLB TRANSLATION  ACCESS:          0 HIT:          0 MISS:          0
cpu0_DTLB PREFETCH REQUESTED:          0 ISSUED:          0 USEFUL:          0 USELESS:          0
cpu0_DTLB AVERAGE MISS LATENCY: 17.66 cycles
cpu0_ITLB TOTAL        ACCESS:       5023 HIT:       4793 MISS:        230
cpu0_ITLB LOAD         ACCESS:       5023 HIT:       4793 MISS:        230
cpu0_ITLB RFO          ACCESS:          0 HIT:          0 MISS:          0
cpu0_ITLB PREFETCH     ACCESS:          0 HIT:          0 MISS:          0
cpu0_ITLB WRITE        ACCESS:          0 HIT:          0 MISS:          0
cpu0_ITLB TRANSLATION  ACCESS:          0 HIT:          0 MISS:          0
cpu0_ITLB PREFETCH REQUESTED:          0 ISSUED:          0 USEFUL:          0 USELESS:          0
cpu0_ITLB AVERAGE MISS LATENCY: 248.1 cycles
cpu0_L1D TOTAL        ACCESS:  177406814 HIT:  165875500 MISS:   11531314
cpu0_L1D LOAD         ACCESS:   69438358 HIT:   67387722 MISS:    2050636
cpu0_L1D RFO          ACCESS:          0 HIT:          0 MISS:          0
cpu0_L1D PREFETCH     ACCESS:          0 HIT:          0 MISS:          0
cpu0_L1D WRITE        ACCESS:  106662952 HIT:   97928509 MISS:    8734443
cpu0_L1D TRANSLATION  ACCESS:    1305504 HIT:     559269 MISS:     746235
cpu0_L1D PREFETCH REQUESTED:          0 ISSUED:          0 USEFUL:          0 USELESS:          0
cpu0_L1D AVERAGE MISS LATENCY: 139.2 cycles
cpu0_L1I TOTAL        ACCESS:       5734 HIT:       3250 MISS:       2484
cpu0_L1I LOAD         ACCESS:       5734 HIT:       3250 MISS:       2484
cpu0_L1I RFO          ACCESS:          0 HIT:          0 MISS:          0
cpu0_L1I PREFETCH     ACCESS:          0 HIT:          0 MISS:          0
cpu0_L1I WRITE        ACCESS:          0 HIT:          0 MISS:          0
cpu0_L1I TRANSLATION  ACCESS:          0 HIT:          0 MISS:          0
cpu0_L1I PREFETCH REQUESTED:          0 ISSUED:          0 USEFUL:          0 USELESS:          0
cpu0_L1I AVERAGE MISS LATENCY: 320.6 cycles
cpu0_L2C TOTAL        ACCESS:    3903774 HIT:    1376352 MISS:    2527422
cpu0_L2C LOAD         ACCESS:    2009349 HIT:      54905 MISS:    1954444
cpu0_L2C RFO          ACCESS:     573525 HIT:      11812 MISS:     561713
cpu0_L2C PREFETCH     ACCESS:          0 HIT:          0 MISS:          0
cpu0_L2C WRITE        ACCESS:     574676 HIT:     574657 MISS:         19
cpu0_L2C TRANSLATION  ACCESS:     746224 HIT:     734978 MISS:      11246
cpu0_L2C PREFETCH REQUESTED:          0 ISSUED:          0 USEFUL:          0 USELESS:          0
cpu0_L2C AVERAGE MISS LATENCY: 659.3 cycles
cpu0_STLB TOTAL        ACCESS:    1982644 HIT:     677148 MISS:    1305496
cpu0_STLB LOAD         ACCESS:    1982644 HIT:     677148 MISS:    1305496
cpu0_STLB RFO          ACCESS:          0 HIT:          0 MISS:          0
cpu0_STLB PREFETCH     ACCESS:          0 HIT:          0 MISS:          0
cpu0_STLB WRITE        ACCESS:          0 HIT:          0 MISS:          0
cpu0_STLB TRANSLATION  ACCESS:          0 HIT:          0 MISS:          0
cpu0_STLB PREFETCH REQUESTED:          0 ISSUED:          0 USEFUL:          0 USELESS:          0
cpu0_STLB AVERAGE MISS LATENCY: 14.2 cycles

DRAM Statistics

Channel 0 RQ ROW_BUFFER_HIT:     146709
  ROW_BUFFER_MISS:    2128836
 AVG DBUS CONGESTED CYCLE: 3.937
WQ ROW_BUFFER_HIT: Channel 0 
  ROW_BUFFER_MISS:     155251
  FULL:     402377
