WARNING: physical memory size is smaller than virtual memory size.

*** ChampSim Multicore Out-of-Order Simulator ***
Warmup Instructions: 50000000
Simulation Instructions: 600000000
Number of CPUs: 1
Page size: 4096

Off-chip DRAM Size: 4 GiB Channels: 1 Width: 64-bit Data Race: 3200 MT/s
Heartbeat CPU 0 instructions: 10000004 cycles: 2777663 heartbeat IPC: 3.6 cumulative IPC: 3.6 (Simulation time: 00 hr 00 min 19 sec)
Heartbeat CPU 0 instructions: 20000001 cycles: 5634805 heartbeat IPC: 3.5 cumulative IPC: 3.549 (Simulation time: 00 hr 00 min 43 sec)
Heartbeat CPU 0 instructions: 30000000 cycles: 8491948 heartbeat IPC: 3.5 cumulative IPC: 3.533 (Simulation time: 00 hr 01 min 10 sec)
Heartbeat CPU 0 instructions: 40000003 cycles: 11120601 heartbeat IPC: 3.804 cumulative IPC: 3.597 (Simulation time: 00 hr 01 min 38 sec)
Heartbeat CPU 0 instructions: 50000003 cycles: 13620601 heartbeat IPC: 4 cumulative IPC: 3.671 (Simulation time: 00 hr 02 min 08 sec)
Warmup finished CPU 0 instructions: 50000003 cycles: 13620602 cumulative IPC: 3.671 (Simulation time: 00 hr 02 min 08 sec)
Warmup complete CPU 0 instructions: 50000003 cycles: 13620602 cumulative IPC: 3.671 (Simulation time: 00 hr 02 min 08 sec)
Heartbeat CPU 0 instructions: 60000002 cycles: 16347845 heartbeat IPC: 3.667 cumulative IPC: 3.667 (Simulation time: 00 hr 02 min 47 sec)
Heartbeat CPU 0 instructions: 70000001 cycles: 19075145 heartbeat IPC: 3.667 cumulative IPC: 3.667 (Simulation time: 00 hr 03 min 27 sec)
Heartbeat CPU 0 instructions: 80000001 cycles: 21802387 heartbeat IPC: 3.667 cumulative IPC: 3.667 (Simulation time: 00 hr 04 min 12 sec)
Heartbeat CPU 0 instructions: 90000000 cycles: 24530876 heartbeat IPC: 3.665 cumulative IPC: 3.666 (Simulation time: 00 hr 04 min 59 sec)
Heartbeat CPU 0 instructions: 100000003 cycles: 27258119 heartbeat IPC: 3.667 cumulative IPC: 3.666 (Simulation time: 00 hr 05 min 50 sec)
Heartbeat CPU 0 instructions: 110000004 cycles: 29985422 heartbeat IPC: 3.667 cumulative IPC: 3.666 (Simulation time: 00 hr 06 min 43 sec)
Heartbeat CPU 0 instructions: 120000003 cycles: 32712692 heartbeat IPC: 3.667 cumulative IPC: 3.666 (Simulation time: 00 hr 07 min 45 sec)
Heartbeat CPU 0 instructions: 130000003 cycles: 35439965 heartbeat IPC: 3.667 cumulative IPC: 3.666 (Simulation time: 00 hr 08 min 51 sec)
Heartbeat CPU 0 instructions: 140000002 cycles: 38167640 heartbeat IPC: 3.666 cumulative IPC: 3.666 (Simulation time: 00 hr 09 min 55 sec)
Heartbeat CPU 0 instructions: 150000000 cycles: 40894883 heartbeat IPC: 3.667 cumulative IPC: 3.666 (Simulation time: 00 hr 11 min 04 sec)
Heartbeat CPU 0 instructions: 160000001 cycles: 43622187 heartbeat IPC: 3.667 cumulative IPC: 3.666 (Simulation time: 00 hr 12 min 08 sec)
Heartbeat CPU 0 instructions: 170000004 cycles: 46349428 heartbeat IPC: 3.667 cumulative IPC: 3.666 (Simulation time: 00 hr 13 min 08 sec)
Heartbeat CPU 0 instructions: 180000000 cycles: 49077111 heartbeat IPC: 3.666 cumulative IPC: 3.666 (Simulation time: 00 hr 14 min 06 sec)
Heartbeat CPU 0 instructions: 190000004 cycles: 51804397 heartbeat IPC: 3.667 cumulative IPC: 3.666 (Simulation time: 00 hr 15 min 04 sec)
Heartbeat CPU 0 instructions: 200000002 cycles: 54531655 heartbeat IPC: 3.667 cumulative IPC: 3.666 (Simulation time: 00 hr 16 min 01 sec)
Heartbeat CPU 0 instructions: 210000003 cycles: 57258958 heartbeat IPC: 3.667 cumulative IPC: 3.666 (Simulation time: 00 hr 16 min 58 sec)
Heartbeat CPU 0 instructions: 220000001 cycles: 59986200 heartbeat IPC: 3.667 cumulative IPC: 3.667 (Simulation time: 00 hr 17 min 55 sec)
Heartbeat CPU 0 instructions: 230000002 cycles: 62713877 heartbeat IPC: 3.666 cumulative IPC: 3.666 (Simulation time: 00 hr 18 min 51 sec)
Heartbeat CPU 0 instructions: 240000003 cycles: 65441119 heartbeat IPC: 3.667 cumulative IPC: 3.667 (Simulation time: 00 hr 19 min 47 sec)
Heartbeat CPU 0 instructions: 250000004 cycles: 68168422 heartbeat IPC: 3.667 cumulative IPC: 3.667 (Simulation time: 00 hr 20 min 48 sec)
Heartbeat CPU 0 instructions: 260000000 cycles: 70895705 heartbeat IPC: 3.667 cumulative IPC: 3.667 (Simulation time: 00 hr 21 min 53 sec)
Heartbeat CPU 0 instructions: 270000003 cycles: 73623783 heartbeat IPC: 3.666 cumulative IPC: 3.666 (Simulation time: 00 hr 22 min 56 sec)
Heartbeat CPU 0 instructions: 280000001 cycles: 76351084 heartbeat IPC: 3.667 cumulative IPC: 3.666 (Simulation time: 00 hr 23 min 57 sec)
Heartbeat CPU 0 instructions: 290000000 cycles: 79078325 heartbeat IPC: 3.667 cumulative IPC: 3.666 (Simulation time: 00 hr 24 min 58 sec)
Heartbeat CPU 0 instructions: 300000001 cycles: 81805628 heartbeat IPC: 3.667 cumulative IPC: 3.666 (Simulation time: 00 hr 26 min 04 sec)
Heartbeat CPU 0 instructions: 310000000 cycles: 84532870 heartbeat IPC: 3.667 cumulative IPC: 3.667 (Simulation time: 00 hr 27 min 07 sec)
Heartbeat CPU 0 instructions: 320000000 cycles: 87260547 heartbeat IPC: 3.666 cumulative IPC: 3.666 (Simulation time: 00 hr 28 min 10 sec)
Heartbeat CPU 0 instructions: 330000001 cycles: 89987843 heartbeat IPC: 3.667 cumulative IPC: 3.666 (Simulation time: 00 hr 29 min 10 sec)
Heartbeat CPU 0 instructions: 340000002 cycles: 92715090 heartbeat IPC: 3.667 cumulative IPC: 3.667 (Simulation time: 00 hr 30 min 10 sec)
Heartbeat CPU 0 instructions: 350000003 cycles: 95442393 heartbeat IPC: 3.667 cumulative IPC: 3.667 (Simulation time: 00 hr 31 min 10 sec)
Heartbeat CPU 0 instructions: 360000001 cycles: 98169998 heartbeat IPC: 3.666 cumulative IPC: 3.666 (Simulation time: 00 hr 32 min 08 sec)
Heartbeat CPU 0 instructions: 370000002 cycles: 100897302 heartbeat IPC: 3.667 cumulative IPC: 3.666 (Simulation time: 00 hr 33 min 06 sec)
Heartbeat CPU 0 instructions: 380000001 cycles: 103624556 heartbeat IPC: 3.667 cumulative IPC: 3.667 (Simulation time: 00 hr 34 min 04 sec)
Heartbeat CPU 0 instructions: 390000004 cycles: 106351845 heartbeat IPC: 3.667 cumulative IPC: 3.667 (Simulation time: 00 hr 35 min 05 sec)
Heartbeat CPU 0 instructions: 400000000 cycles: 109079145 heartbeat IPC: 3.667 cumulative IPC: 3.667 (Simulation time: 00 hr 36 min 07 sec)
Heartbeat CPU 0 instructions: 410000003 cycles: 111806763 heartbeat IPC: 3.666 cumulative IPC: 3.667 (Simulation time: 00 hr 37 min 06 sec)
Heartbeat CPU 0 instructions: 420000003 cycles: 120249971 heartbeat IPC: 1.184 cumulative IPC: 3.47 (Simulation time: 00 hr 39 min 16 sec)
Heartbeat CPU 0 instructions: 430000003 cycles: 142298331 heartbeat IPC: 0.4535 cumulative IPC: 2.953 (Simulation time: 00 hr 44 min 15 sec)
Heartbeat CPU 0 instructions: 440000004 cycles: 161165144 heartbeat IPC: 0.53 cumulative IPC: 2.643 (Simulation time: 00 hr 48 min 39 sec)
Heartbeat CPU 0 instructions: 450000000 cycles: 180004035 heartbeat IPC: 0.5308 cumulative IPC: 2.404 (Simulation time: 00 hr 52 min 55 sec)
Heartbeat CPU 0 instructions: 460000002 cycles: 198842577 heartbeat IPC: 0.5308 cumulative IPC: 2.214 (Simulation time: 00 hr 57 min 04 sec)
Heartbeat CPU 0 instructions: 470000003 cycles: 217698929 heartbeat IPC: 0.5303 cumulative IPC: 2.058 (Simulation time: 01 hr 01 min 14 sec)
Heartbeat CPU 0 instructions: 480000003 cycles: 236511960 heartbeat IPC: 0.5315 cumulative IPC: 1.929 (Simulation time: 01 hr 05 min 43 sec)
Heartbeat CPU 0 instructions: 490000004 cycles: 255306280 heartbeat IPC: 0.5321 cumulative IPC: 1.821 (Simulation time: 01 hr 13 min 16 sec)
Heartbeat CPU 0 instructions: 500000003 cycles: 274178727 heartbeat IPC: 0.5299 cumulative IPC: 1.727 (Simulation time: 01 hr 20 min 54 sec)
Heartbeat CPU 0 instructions: 510000002 cycles: 292967052 heartbeat IPC: 0.5322 cumulative IPC: 1.647 (Simulation time: 01 hr 29 min 01 sec)
Heartbeat CPU 0 instructions: 520000003 cycles: 311808619 heartbeat IPC: 0.5307 cumulative IPC: 1.576 (Simulation time: 01 hr 34 min 25 sec)
Heartbeat CPU 0 instructions: 530000003 cycles: 330596467 heartbeat IPC: 0.5323 cumulative IPC: 1.514 (Simulation time: 01 hr 43 min 38 sec)
Heartbeat CPU 0 instructions: 540000004 cycles: 349372897 heartbeat IPC: 0.5326 cumulative IPC: 1.459 (Simulation time: 01 hr 51 min 55 sec)
Heartbeat CPU 0 instructions: 550000000 cycles: 368207721 heartbeat IPC: 0.5309 cumulative IPC: 1.41 (Simulation time: 01 hr 59 min 58 sec)
Heartbeat CPU 0 instructions: 560000002 cycles: 387027861 heartbeat IPC: 0.5313 cumulative IPC: 1.366 (Simulation time: 02 hr 07 min 53 sec)
Heartbeat CPU 0 instructions: 570000002 cycles: 405880064 heartbeat IPC: 0.5304 cumulative IPC: 1.326 (Simulation time: 02 hr 15 min 11 sec)
Heartbeat CPU 0 instructions: 580000000 cycles: 424710113 heartbeat IPC: 0.5311 cumulative IPC: 1.289 (Simulation time: 02 hr 23 min 47 sec)
Heartbeat CPU 0 instructions: 590000000 cycles: 443550975 heartbeat IPC: 0.5308 cumulative IPC: 1.256 (Simulation time: 02 hr 28 min 47 sec)
*** Reached end of trace: (0, "traces/l1l2l3cache.champsimtrace")
Heartbeat CPU 0 instructions: 600000000 cycles: 462337351 heartbeat IPC: 0.5323 cumulative IPC: 1.226 (Simulation time: 02 hr 33 min 15 sec)
Heartbeat CPU 0 instructions: 610000002 cycles: 473262710 heartbeat IPC: 0.9153 cumulative IPC: 1.218 (Simulation time: 02 hr 35 min 48 sec)
Heartbeat CPU 0 instructions: 620000001 cycles: 488764815 heartbeat IPC: 0.6451 cumulative IPC: 1.2 (Simulation time: 02 hr 39 min 19 sec)
Heartbeat CPU 0 instructions: 630000000 cycles: 504237134 heartbeat IPC: 0.6463 cumulative IPC: 1.182 (Simulation time: 02 hr 42 min 56 sec)
Heartbeat CPU 0 instructions: 640000000 cycles: 511576818 heartbeat IPC: 1.362 cumulative IPC: 1.185 (Simulation time: 02 hr 44 min 55 sec)
Heartbeat CPU 0 instructions: 650000003 cycles: 514304465 heartbeat IPC: 3.666 cumulative IPC: 1.198 (Simulation time: 02 hr 46 min 00 sec)
Simulation finished CPU 0 instructions: 600000000 cycles: 500683864 cumulative IPC: 1.198 (Simulation time: 02 hr 46 min 00 sec)
Simulation complete CPU 0 instructions: 600000000 cycles: 500683864 cumulative IPC: 1.198 (Simulation time: 02 hr 46 min 00 sec)

ChampSim completed all CPUs

=== Simulation ===
CPU 0 runs traces/l1l2l3cache.champsimtrace
Region of Interest Statistics

CPU 0 cumulative IPC: 1.198 instructions: 600000000 cycles: 500683864
CPU 0 Branch Prediction Accuracy: 99.34% MPKI: 1.413 Average ROB Occupancy at Mispredict: 143.2
Branch type MPKI
BRANCH_DIRECT_JUMP: 8.5e-05
BRANCH_INDIRECT: 0.000237
BRANCH_CONDITIONAL: 1.41
BRANCH_DIRECT_CALL: 5e-06
BRANCH_INDIRECT_CALL: 4.67e-05
BRANCH_RETURN: 3.67e-05

LLC TOTAL        ACCESS:    3089471 HIT:     747910 MISS:    2341561
LLC LOAD         ACCESS:    1954442 HIT:     178908 MISS:    1775534
LLC RFO          ACCESS:     561712 HIT:        972 MISS:     560740
LLC PREFETCH     ACCESS:          0 HIT:          0 MISS:          0
LLC WRITE        ACCESS:     562069 HIT:     562010 MISS:         59
LLC TRANSLATION  ACCESS:      11248 HIT:       6020 MISS:       5228
LLC PREFETCH REQUESTED:          0 ISSUED:          0 USEFUL:          0 USELESS:          0
LLC AVERAGE MISS LATENCY: 699.3 cycles
cpu0_DTLB TOTAL        ACCESS:  131756874 HIT:  129741949 MISS:    2014925
cpu0_DTLB LOAD         ACCESS:  131756874 HIT:  129741949 MISS:    2014925
cpu0_DTLB RFO          ACCESS:          0 HIT:          0 MISS:          0
cpu0_DTLB PREFETCH     ACCESS:          0 HIT:          0 MISS:          0
cpu0_DTLB WRITE        ACCESS:          0 HIT:          0 MISS:          0
cpu0_DTLB TRANSLATION  ACCESS:          0 HIT:          0 MISS:          0
cpu0_DTLB PREFETCH REQUESTED:          0 ISSUED:          0 USEFUL:          0 USELESS:          0
cpu0_DTLB AVERAGE MISS LATENCY: 18.4 cycles
cpu0_ITLB TOTAL        ACCESS:       5001 HIT:       4780 MISS:        221
cpu0_ITLB LOAD         ACCESS:       5001 HIT:       4780 MISS:        221
cpu0_ITLB RFO          ACCESS:          0 HIT:          0 MISS:          0
cpu0_ITLB PREFETCH     ACCESS:          0 HIT:          0 MISS:          0
cpu0_ITLB WRITE        ACCESS:          0 HIT:          0 MISS:          0
cpu0_ITLB TRANSLATION  ACCESS:          0 HIT:          0 MISS:          0
cpu0_ITLB PREFETCH REQUESTED:          0 ISSUED:          0 USEFUL:          0 USELESS:          0
cpu0_ITLB AVERAGE MISS LATENCY: 243.1 cycles
cpu0_L1D TOTAL        ACCESS:  179294139 HIT:  167708611 MISS:   11585528
cpu0_L1D LOAD         ACCESS:   70970617 HIT:   68920288 MISS:    2050329
cpu0_L1D RFO          ACCESS:          0 HIT:          0 MISS:          0
cpu0_L1D PREFETCH     ACCESS:          0 HIT:          0 MISS:          0
cpu0_L1D WRITE        ACCESS:  107018021 HIT:   98229063 MISS:    8788958
cpu0_L1D TRANSLATION  ACCESS:    1305501 HIT:     559260 MISS:     746241
cpu0_L1D PREFETCH REQUESTED:          0 ISSUED:          0 USEFUL:          0 USELESS:          0
cpu0_L1D AVERAGE MISS LATENCY: 140.3 cycles
cpu0_L1I TOTAL        ACCESS:       5704 HIT:       3416 MISS:       2288
cpu0_L1I LOAD         ACCESS:       5704 HIT:       3416 MISS:       2288
cpu0_L1I RFO          ACCESS:          0 HIT:          0 MISS:          0
cpu0_L1I PREFETCH     ACCESS:          0 HIT:          0 MISS:          0
cpu0_L1I WRITE        ACCESS:          0 HIT:          0 MISS:          0
cpu0_L1I TRANSLATION  ACCESS:          0 HIT:          0 MISS:          0
cpu0_L1I PREFETCH REQUESTED:          0 ISSUED:          0 USEFUL:          0 USELESS:          0
cpu0_L1I AVERAGE MISS LATENCY: 313.6 cycles
cpu0_L2C TOTAL        ACCESS:    3903788 HIT:    1376367 MISS:    2527421
cpu0_L2C LOAD         ACCESS:    2009353 HIT:      54911 MISS:    1954442
cpu0_L2C RFO          ACCESS:     573523 HIT:      11811 MISS:     561712
cpu0_L2C PREFETCH     ACCESS:          0 HIT:          0 MISS:          0
cpu0_L2C WRITE        ACCESS:     574685 HIT:     574666 MISS:         19
cpu0_L2C TRANSLATION  ACCESS:     746227 HIT:     734979 MISS:      11248
cpu0_L2C PREFETCH REQUESTED:          0 ISSUED:          0 USEFUL:          0 USELESS:          0
cpu0_L2C AVERAGE MISS LATENCY: 668.8 cycles
cpu0_STLB TOTAL        ACCESS:    1982678 HIT:     677185 MISS:    1305493
cpu0_STLB LOAD         ACCESS:    1982678 HIT:     677185 MISS:    1305493
cpu0_STLB RFO          ACCESS:          0 HIT:          0 MISS:          0
cpu0_STLB PREFETCH     ACCESS:          0 HIT:          0 MISS:          0
cpu0_STLB WRITE        ACCESS:          0 HIT:          0 MISS:          0
cpu0_STLB TRANSLATION  ACCESS:          0 HIT:          0 MISS:          0
cpu0_STLB PREFETCH REQUESTED:          0 ISSUED:          0 USEFUL:          0 USELESS:          0
cpu0_STLB AVERAGE MISS LATENCY: 15.36 cycles

DRAM Statistics

Channel 0 RQ ROW_BUFFER_HIT:     108393
  ROW_BUFFER_MISS:    2232806
 AVG DBUS CONGESTED CYCLE: 3.949
WQ ROW_BUFFER_HIT: Channel 0 
  ROW_BUFFER_MISS:     168384
  FULL:     393578
