WARNING: physical memory size is smaller than virtual memory size.

*** ChampSim Multicore Out-of-Order Simulator ***
Warmup Instructions: 50000000
Simulation Instructions: 600000000
Number of CPUs: 1
Page size: 4096

CPU 0 Tage branch predictor
Off-chip DRAM Size: 4 GiB Channels: 1 Width: 64-bit Data Race: 3200 MT/s
Heartbeat CPU 0 instructions: 10000004 cycles: 2777663 heartbeat IPC: 3.6 cumulative IPC: 3.6 (Simulation time: 00 hr 00 min 35 sec)
Heartbeat CPU 0 instructions: 20000001 cycles: 5634805 heartbeat IPC: 3.5 cumulative IPC: 3.549 (Simulation time: 00 hr 01 min 12 sec)
Heartbeat CPU 0 instructions: 30000000 cycles: 8491948 heartbeat IPC: 3.5 cumulative IPC: 3.533 (Simulation time: 00 hr 01 min 56 sec)
Heartbeat CPU 0 instructions: 40000003 cycles: 11120601 heartbeat IPC: 3.804 cumulative IPC: 3.597 (Simulation time: 00 hr 02 min 43 sec)
Heartbeat CPU 0 instructions: 50000003 cycles: 13620601 heartbeat IPC: 4 cumulative IPC: 3.671 (Simulation time: 00 hr 03 min 31 sec)
Warmup finished CPU 0 instructions: 50000003 cycles: 13620602 cumulative IPC: 3.671 (Simulation time: 00 hr 03 min 31 sec)
Warmup complete CPU 0 instructions: 50000003 cycles: 13620602 cumulative IPC: 3.671 (Simulation time: 00 hr 03 min 31 sec)
Heartbeat CPU 0 instructions: 60000002 cycles: 16120603 heartbeat IPC: 4 cumulative IPC: 4 (Simulation time: 00 hr 04 min 31 sec)
Heartbeat CPU 0 instructions: 70000001 cycles: 18620602 heartbeat IPC: 4 cumulative IPC: 4 (Simulation time: 00 hr 05 min 38 sec)
Heartbeat CPU 0 instructions: 80000000 cycles: 21120601 heartbeat IPC: 4 cumulative IPC: 4 (Simulation time: 00 hr 06 min 55 sec)
Heartbeat CPU 0 instructions: 90000003 cycles: 23620910 heartbeat IPC: 4 cumulative IPC: 4 (Simulation time: 00 hr 08 min 15 sec)
Heartbeat CPU 0 instructions: 100000003 cycles: 26120911 heartbeat IPC: 4 cumulative IPC: 4 (Simulation time: 00 hr 09 min 33 sec)
Heartbeat CPU 0 instructions: 110000004 cycles: 28620912 heartbeat IPC: 4 cumulative IPC: 4 (Simulation time: 00 hr 10 min 45 sec)
Heartbeat CPU 0 instructions: 120000003 cycles: 31120911 heartbeat IPC: 4 cumulative IPC: 4 (Simulation time: 00 hr 11 min 57 sec)
Heartbeat CPU 0 instructions: 130000002 cycles: 33620910 heartbeat IPC: 4 cumulative IPC: 4 (Simulation time: 00 hr 13 min 05 sec)
Heartbeat CPU 0 instructions: 140000000 cycles: 36121320 heartbeat IPC: 3.999 cumulative IPC: 4 (Simulation time: 00 hr 14 min 14 sec)
Heartbeat CPU 0 instructions: 150000000 cycles: 38621321 heartbeat IPC: 4 cumulative IPC: 4 (Simulation time: 00 hr 15 min 21 sec)
Heartbeat CPU 0 instructions: 160000001 cycles: 41121322 heartbeat IPC: 4 cumulative IPC: 4 (Simulation time: 00 hr 16 min 31 sec)
Heartbeat CPU 0 instructions: 170000004 cycles: 43621322 heartbeat IPC: 4 cumulative IPC: 4 (Simulation time: 00 hr 17 min 38 sec)
Heartbeat CPU 0 instructions: 180000000 cycles: 46121572 heartbeat IPC: 4 cumulative IPC: 4 (Simulation time: 00 hr 18 min 45 sec)
Heartbeat CPU 0 instructions: 190000004 cycles: 48621573 heartbeat IPC: 4 cumulative IPC: 4 (Simulation time: 00 hr 19 min 55 sec)
Heartbeat CPU 0 instructions: 200000002 cycles: 51121573 heartbeat IPC: 4 cumulative IPC: 4 (Simulation time: 00 hr 21 min 05 sec)
Heartbeat CPU 0 instructions: 210000003 cycles: 53621574 heartbeat IPC: 4 cumulative IPC: 4 (Simulation time: 00 hr 22 min 15 sec)
Heartbeat CPU 0 instructions: 220000001 cycles: 56121573 heartbeat IPC: 4 cumulative IPC: 4 (Simulation time: 00 hr 23 min 29 sec)
Heartbeat CPU 0 instructions: 230000002 cycles: 58623964 heartbeat IPC: 3.996 cumulative IPC: 4 (Simulation time: 00 hr 24 min 48 sec)
Heartbeat CPU 0 instructions: 240000003 cycles: 61123964 heartbeat IPC: 4 cumulative IPC: 4 (Simulation time: 00 hr 26 min 03 sec)
Heartbeat CPU 0 instructions: 250000004 cycles: 63623965 heartbeat IPC: 4 cumulative IPC: 4 (Simulation time: 00 hr 27 min 15 sec)
Heartbeat CPU 0 instructions: 260000000 cycles: 66123965 heartbeat IPC: 4 cumulative IPC: 4 (Simulation time: 00 hr 28 min 27 sec)
Heartbeat CPU 0 instructions: 270000003 cycles: 68624656 heartbeat IPC: 3.999 cumulative IPC: 4 (Simulation time: 00 hr 29 min 42 sec)
Heartbeat CPU 0 instructions: 280000001 cycles: 71124655 heartbeat IPC: 4 cumulative IPC: 4 (Simulation time: 00 hr 30 min 53 sec)
Heartbeat CPU 0 instructions: 290000000 cycles: 73624655 heartbeat IPC: 4 cumulative IPC: 4 (Simulation time: 00 hr 32 min 04 sec)
Heartbeat CPU 0 instructions: 300000001 cycles: 76124656 heartbeat IPC: 4 cumulative IPC: 4 (Simulation time: 00 hr 33 min 14 sec)
Heartbeat CPU 0 instructions: 310000000 cycles: 78624656 heartbeat IPC: 4 cumulative IPC: 4 (Simulation time: 00 hr 34 min 24 sec)
Heartbeat CPU 0 instructions: 320000000 cycles: 81125292 heartbeat IPC: 3.999 cumulative IPC: 4 (Simulation time: 00 hr 35 min 34 sec)
Heartbeat CPU 0 instructions: 330000000 cycles: 83625290 heartbeat IPC: 4 cumulative IPC: 4 (Simulation time: 00 hr 36 min 45 sec)
Heartbeat CPU 0 instructions: 340000002 cycles: 86125291 heartbeat IPC: 4 cumulative IPC: 4 (Simulation time: 00 hr 38 min 01 sec)
Heartbeat CPU 0 instructions: 350000003 cycles: 88625292 heartbeat IPC: 4 cumulative IPC: 4 (Simulation time: 00 hr 39 min 12 sec)
Heartbeat CPU 0 instructions: 360000001 cycles: 91127246 heartbeat IPC: 3.997 cumulative IPC: 4 (Simulation time: 00 hr 40 min 23 sec)
Heartbeat CPU 0 instructions: 370000002 cycles: 93627247 heartbeat IPC: 4 cumulative IPC: 4 (Simulation time: 00 hr 41 min 36 sec)
Heartbeat CPU 0 instructions: 380000002 cycles: 96127246 heartbeat IPC: 4 cumulative IPC: 4 (Simulation time: 00 hr 42 min 52 sec)
Heartbeat CPU 0 instructions: 390000004 cycles: 98627247 heartbeat IPC: 4 cumulative IPC: 4 (Simulation time: 00 hr 44 min 05 sec)
Heartbeat CPU 0 instructions: 400000000 cycles: 101127247 heartbeat IPC: 4 cumulative IPC: 4 (Simulation time: 00 hr 45 min 20 sec)
Heartbeat CPU 0 instructions: 410000003 cycles: 103627615 heartbeat IPC: 3.999 cumulative IPC: 4 (Simulation time: 00 hr 46 min 32 sec)
Heartbeat CPU 0 instructions: 420000003 cycles: 113789371 heartbeat IPC: 0.9841 cumulative IPC: 3.694 (Simulation time: 00 hr 49 min 09 sec)
Heartbeat CPU 0 instructions: 430000002 cycles: 135985588 heartbeat IPC: 0.4505 cumulative IPC: 3.105 (Simulation time: 00 hr 54 min 09 sec)
Heartbeat CPU 0 instructions: 440000004 cycles: 154964929 heartbeat IPC: 0.5269 cumulative IPC: 2.759 (Simulation time: 00 hr 58 min 27 sec)
Heartbeat CPU 0 instructions: 450000000 cycles: 173645898 heartbeat IPC: 0.5353 cumulative IPC: 2.5 (Simulation time: 01 hr 02 min 55 sec)
Heartbeat CPU 0 instructions: 460000001 cycles: 192263465 heartbeat IPC: 0.5371 cumulative IPC: 2.295 (Simulation time: 01 hr 09 min 54 sec)
Heartbeat CPU 0 instructions: 470000003 cycles: 210873463 heartbeat IPC: 0.5373 cumulative IPC: 2.129 (Simulation time: 01 hr 17 min 26 sec)
Heartbeat CPU 0 instructions: 480000003 cycles: 229478246 heartbeat IPC: 0.5375 cumulative IPC: 1.992 (Simulation time: 01 hr 25 min 39 sec)
Heartbeat CPU 0 instructions: 490000002 cycles: 248064513 heartbeat IPC: 0.538 cumulative IPC: 1.877 (Simulation time: 01 hr 31 min 57 sec)
Heartbeat CPU 0 instructions: 500000003 cycles: 266671468 heartbeat IPC: 0.5374 cumulative IPC: 1.778 (Simulation time: 01 hr 40 min 28 sec)
Heartbeat CPU 0 instructions: 510000002 cycles: 285237600 heartbeat IPC: 0.5386 cumulative IPC: 1.694 (Simulation time: 01 hr 49 min 14 sec)
Heartbeat CPU 0 instructions: 520000003 cycles: 303825616 heartbeat IPC: 0.538 cumulative IPC: 1.62 (Simulation time: 01 hr 57 min 39 sec)
Heartbeat CPU 0 instructions: 530000004 cycles: 322401193 heartbeat IPC: 0.5383 cumulative IPC: 1.555 (Simulation time: 02 hr 06 min 31 sec)
Heartbeat CPU 0 instructions: 540000004 cycles: 340956802 heartbeat IPC: 0.5389 cumulative IPC: 1.497 (Simulation time: 02 hr 13 min 59 sec)
Heartbeat CPU 0 instructions: 550000000 cycles: 359554986 heartbeat IPC: 0.5377 cumulative IPC: 1.445 (Simulation time: 02 hr 22 min 28 sec)
Heartbeat CPU 0 instructions: 560000002 cycles: 378163792 heartbeat IPC: 0.5374 cumulative IPC: 1.399 (Simulation time: 02 hr 27 min 34 sec)
Heartbeat CPU 0 instructions: 570000002 cycles: 396777319 heartbeat IPC: 0.5372 cumulative IPC: 1.357 (Simulation time: 02 hr 32 min 01 sec)
Heartbeat CPU 0 instructions: 580000000 cycles: 415393449 heartbeat IPC: 0.5372 cumulative IPC: 1.319 (Simulation time: 02 hr 36 min 21 sec)
Heartbeat CPU 0 instructions: 590000000 cycles: 434024709 heartbeat IPC: 0.5367 cumulative IPC: 1.284 (Simulation time: 02 hr 40 min 54 sec)
*** Reached end of trace: (0, "traces/l1l2l3cache.champsimtrace")
Heartbeat CPU 0 instructions: 600000001 cycles: 452599693 heartbeat IPC: 0.5384 cumulative IPC: 1.253 (Simulation time: 02 hr 45 min 40 sec)
Heartbeat CPU 0 instructions: 610000001 cycles: 462316243 heartbeat IPC: 1.029 cumulative IPC: 1.248 (Simulation time: 02 hr 48 min 15 sec)
Heartbeat CPU 0 instructions: 620000002 cycles: 477646403 heartbeat IPC: 0.6523 cumulative IPC: 1.228 (Simulation time: 02 hr 51 min 59 sec)
Heartbeat CPU 0 instructions: 630000002 cycles: 492949308 heartbeat IPC: 0.6535 cumulative IPC: 1.21 (Simulation time: 02 hr 55 min 47 sec)
Heartbeat CPU 0 instructions: 640000000 cycles: 500064480 heartbeat IPC: 1.405 cumulative IPC: 1.213 (Simulation time: 02 hr 57 min 52 sec)
Heartbeat CPU 0 instructions: 650000001 cycles: 502564481 heartbeat IPC: 4 cumulative IPC: 1.227 (Simulation time: 02 hr 59 min 03 sec)
Simulation finished CPU 0 instructions: 600000003 cycles: 488943881 cumulative IPC: 1.227 (Simulation time: 02 hr 59 min 03 sec)
Simulation complete CPU 0 instructions: 600000003 cycles: 488943881 cumulative IPC: 1.227 (Simulation time: 02 hr 59 min 03 sec)

ChampSim completed all CPUs

=== Simulation ===
CPU 0 runs traces/l1l2l3cache.champsimtrace
Region of Interest Statistics

CPU 0 cumulative IPC: 1.227 instructions: 600000003 cycles: 488943881
CPU 0 Branch Prediction Accuracy: 99.99% MPKI: 0.01094 Average ROB Occupancy at Mispredict: 170.5
Branch type MPKI
BRANCH_DIRECT_JUMP: 8.5e-05
BRANCH_INDIRECT: 0.000237
BRANCH_CONDITIONAL: 0.0105
BRANCH_DIRECT_CALL: 5e-06
BRANCH_INDIRECT_CALL: 4.67e-05
BRANCH_RETURN: 3.67e-05

LLC TOTAL        ACCESS:    3095861 HIT:     303696 MISS:    2792165
LLC LOAD         ACCESS:    1954446 HIT:     206481 MISS:    1747965
LLC RFO          ACCESS:     561710 HIT:      27943 MISS:     533767
LLC PREFETCH     ACCESS:       6400 HIT:       1624 MISS:       4776
LLC WRITE        ACCESS:     562063 HIT:      59401 MISS:     502662
LLC TRANSLATION  ACCESS:      11242 HIT:       8247 MISS:       2995
LLC PREFETCH REQUESTED:       6400 ISSUED:       6400 USEFUL:       2348 USELESS:        155
LLC AVERAGE MISS LATENCY: 573.5 cycles
cpu0_DTLB TOTAL        ACCESS:  124340858 HIT:  122326035 MISS:    2014823
cpu0_DTLB LOAD         ACCESS:  124340858 HIT:  122326035 MISS:    2014823
cpu0_DTLB RFO          ACCESS:          0 HIT:          0 MISS:          0
cpu0_DTLB PREFETCH     ACCESS:          0 HIT:          0 MISS:          0
cpu0_DTLB WRITE        ACCESS:          0 HIT:          0 MISS:          0
cpu0_DTLB TRANSLATION  ACCESS:          0 HIT:          0 MISS:          0
cpu0_DTLB PREFETCH REQUESTED:          0 ISSUED:          0 USEFUL:          0 USELESS:          0
cpu0_DTLB AVERAGE MISS LATENCY: 17.91 cycles
cpu0_ITLB TOTAL        ACCESS:       5109 HIT:       4868 MISS:        241
cpu0_ITLB LOAD         ACCESS:       5109 HIT:       4868 MISS:        241
cpu0_ITLB RFO          ACCESS:          0 HIT:          0 MISS:          0
cpu0_ITLB PREFETCH     ACCESS:          0 HIT:          0 MISS:          0
cpu0_ITLB WRITE        ACCESS:          0 HIT:          0 MISS:          0
cpu0_ITLB TRANSLATION  ACCESS:          0 HIT:          0 MISS:          0
cpu0_ITLB PREFETCH REQUESTED:          0 ISSUED:          0 USEFUL:          0 USELESS:          0
cpu0_ITLB AVERAGE MISS LATENCY: 256.3 cycles
cpu0_L1D TOTAL        ACCESS:  172118609 HIT:  160851354 MISS:   11267255
cpu0_L1D LOAD         ACCESS:   63782155 HIT:   61734502 MISS:    2047653
cpu0_L1D RFO          ACCESS:          0 HIT:          0 MISS:          0
cpu0_L1D PREFETCH     ACCESS:          0 HIT:          0 MISS:          0
cpu0_L1D WRITE        ACCESS:  107030952 HIT:   98557590 MISS:    8473362
cpu0_L1D TRANSLATION  ACCESS:    1305502 HIT:     559262 MISS:     746240
cpu0_L1D PREFETCH REQUESTED:          0 ISSUED:          0 USEFUL:          0 USELESS:          0
cpu0_L1D AVERAGE MISS LATENCY: 142.2 cycles
cpu0_L1I TOTAL        ACCESS:       5886 HIT:       3303 MISS:       2583
cpu0_L1I LOAD         ACCESS:       5886 HIT:       3303 MISS:       2583
cpu0_L1I RFO          ACCESS:          0 HIT:          0 MISS:          0
cpu0_L1I PREFETCH     ACCESS:          0 HIT:          0 MISS:          0
cpu0_L1I WRITE        ACCESS:          0 HIT:          0 MISS:          0
cpu0_L1I TRANSLATION  ACCESS:          0 HIT:          0 MISS:          0
cpu0_L1I PREFETCH REQUESTED:          0 ISSUED:          0 USEFUL:          0 USELESS:          0
cpu0_L1I AVERAGE MISS LATENCY: 319.8 cycles
cpu0_L2C TOTAL        ACCESS:    3905770 HIT:    1378355 MISS:    2527415
cpu0_L2C LOAD         ACCESS:    2009350 HIT:      54904 MISS:    1954446
cpu0_L2C RFO          ACCESS:     574425 HIT:      12715 MISS:     561710
cpu0_L2C PREFETCH     ACCESS:          0 HIT:          0 MISS:          0
cpu0_L2C WRITE        ACCESS:     575768 HIT:     575751 MISS:         17
cpu0_L2C TRANSLATION  ACCESS:     746227 HIT:     734985 MISS:      11242
cpu0_L2C PREFETCH REQUESTED:          0 ISSUED:          0 USEFUL:          0 USELESS:          0
cpu0_L2C AVERAGE MISS LATENCY: 654.2 cycles
cpu0_STLB TOTAL        ACCESS:    1982611 HIT:     677117 MISS:    1305494
cpu0_STLB LOAD         ACCESS:    1982611 HIT:     677117 MISS:    1305494
cpu0_STLB RFO          ACCESS:          0 HIT:          0 MISS:          0
cpu0_STLB PREFETCH     ACCESS:          0 HIT:          0 MISS:          0
cpu0_STLB WRITE        ACCESS:          0 HIT:          0 MISS:          0
cpu0_STLB TRANSLATION  ACCESS:          0 HIT:          0 MISS:          0
cpu0_STLB PREFETCH REQUESTED:          0 ISSUED:          0 USEFUL:          0 USELESS:          0
cpu0_STLB AVERAGE MISS LATENCY: 14.6 cycles

DRAM Statistics

Channel 0 RQ ROW_BUFFER_HIT:     114556
  ROW_BUFFER_MISS:    2171408
 AVG DBUS CONGESTED CYCLE: 3.94
WQ ROW_BUFFER_HIT: Channel 0 
  ROW_BUFFER_MISS:     166536
  FULL:     369524
Final OPTGen Hits: 11686
Final OPTGen Access: 43849
Final OPTGEN Hit Rate: 26.6506
