WARNING: physical memory size is smaller than virtual memory size.

*** ChampSim Multicore Out-of-Order Simulator ***
Warmup Instructions: 50000000
Simulation Instructions: 600000000
Number of CPUs: 1
Page size: 4096

CPU 0 Tage branch predictor
Off-chip DRAM Size: 4 GiB Channels: 1 Width: 64-bit Data Race: 3200 MT/s
Heartbeat CPU 0 instructions: 10000001 cycles: 2565786 heartbeat IPC: 3.897 cumulative IPC: 3.897 (Simulation time: 00 hr 00 min 43 sec)
Heartbeat CPU 0 instructions: 20000001 cycles: 5065786 heartbeat IPC: 4 cumulative IPC: 3.948 (Simulation time: 00 hr 01 min 23 sec)
Heartbeat CPU 0 instructions: 30000000 cycles: 7570436 heartbeat IPC: 3.993 cumulative IPC: 3.963 (Simulation time: 00 hr 02 min 03 sec)
Heartbeat CPU 0 instructions: 40000001 cycles: 10115307 heartbeat IPC: 3.929 cumulative IPC: 3.954 (Simulation time: 00 hr 02 min 43 sec)
Heartbeat CPU 0 instructions: 50000004 cycles: 12660174 heartbeat IPC: 3.929 cumulative IPC: 3.949 (Simulation time: 00 hr 03 min 24 sec)
Warmup finished CPU 0 instructions: 50000004 cycles: 12660175 cumulative IPC: 3.949 (Simulation time: 00 hr 03 min 24 sec)
Warmup complete CPU 0 instructions: 50000004 cycles: 12660175 cumulative IPC: 3.949 (Simulation time: 00 hr 03 min 24 sec)
Heartbeat CPU 0 instructions: 60000002 cycles: 15205085 heartbeat IPC: 3.929 cumulative IPC: 3.929 (Simulation time: 00 hr 04 min 12 sec)
Heartbeat CPU 0 instructions: 70000001 cycles: 17749949 heartbeat IPC: 3.929 cumulative IPC: 3.929 (Simulation time: 00 hr 05 min 00 sec)
Heartbeat CPU 0 instructions: 80000001 cycles: 20294813 heartbeat IPC: 3.929 cumulative IPC: 3.929 (Simulation time: 00 hr 05 min 48 sec)
Heartbeat CPU 0 instructions: 90000000 cycles: 22839677 heartbeat IPC: 3.929 cumulative IPC: 3.929 (Simulation time: 00 hr 06 min 36 sec)
Heartbeat CPU 0 instructions: 100000004 cycles: 25384542 heartbeat IPC: 3.929 cumulative IPC: 3.929 (Simulation time: 00 hr 07 min 24 sec)
Heartbeat CPU 0 instructions: 110000004 cycles: 27929409 heartbeat IPC: 3.929 cumulative IPC: 3.929 (Simulation time: 00 hr 08 min 12 sec)
Heartbeat CPU 0 instructions: 120000003 cycles: 30474269 heartbeat IPC: 3.929 cumulative IPC: 3.929 (Simulation time: 00 hr 09 min 00 sec)
Heartbeat CPU 0 instructions: 130000002 cycles: 33019154 heartbeat IPC: 3.929 cumulative IPC: 3.929 (Simulation time: 00 hr 09 min 49 sec)
Heartbeat CPU 0 instructions: 140000002 cycles: 35564017 heartbeat IPC: 3.929 cumulative IPC: 3.929 (Simulation time: 00 hr 10 min 37 sec)
Heartbeat CPU 0 instructions: 150000001 cycles: 38108876 heartbeat IPC: 3.929 cumulative IPC: 3.929 (Simulation time: 00 hr 11 min 25 sec)
Heartbeat CPU 0 instructions: 160000001 cycles: 40653756 heartbeat IPC: 3.929 cumulative IPC: 3.929 (Simulation time: 00 hr 12 min 15 sec)
Heartbeat CPU 0 instructions: 170000000 cycles: 43198623 heartbeat IPC: 3.929 cumulative IPC: 3.929 (Simulation time: 00 hr 13 min 05 sec)
Heartbeat CPU 0 instructions: 180000002 cycles: 45743468 heartbeat IPC: 3.93 cumulative IPC: 3.929 (Simulation time: 00 hr 13 min 53 sec)
Heartbeat CPU 0 instructions: 190000004 cycles: 48288351 heartbeat IPC: 3.929 cumulative IPC: 3.929 (Simulation time: 00 hr 14 min 42 sec)
Heartbeat CPU 0 instructions: 200000003 cycles: 50833216 heartbeat IPC: 3.929 cumulative IPC: 3.929 (Simulation time: 00 hr 15 min 30 sec)
Heartbeat CPU 0 instructions: 210000002 cycles: 53378075 heartbeat IPC: 3.929 cumulative IPC: 3.929 (Simulation time: 00 hr 16 min 19 sec)
Heartbeat CPU 0 instructions: 220000002 cycles: 55922942 heartbeat IPC: 3.929 cumulative IPC: 3.929 (Simulation time: 00 hr 17 min 08 sec)
Heartbeat CPU 0 instructions: 230000001 cycles: 58467824 heartbeat IPC: 3.929 cumulative IPC: 3.929 (Simulation time: 00 hr 17 min 57 sec)
Heartbeat CPU 0 instructions: 240000001 cycles: 61012693 heartbeat IPC: 3.929 cumulative IPC: 3.929 (Simulation time: 00 hr 18 min 45 sec)
Heartbeat CPU 0 instructions: 250000000 cycles: 63557560 heartbeat IPC: 3.929 cumulative IPC: 3.929 (Simulation time: 00 hr 19 min 35 sec)
Heartbeat CPU 0 instructions: 260000004 cycles: 66102421 heartbeat IPC: 3.929 cumulative IPC: 3.929 (Simulation time: 00 hr 20 min 24 sec)
Heartbeat CPU 0 instructions: 270000004 cycles: 68647283 heartbeat IPC: 3.929 cumulative IPC: 3.929 (Simulation time: 00 hr 21 min 13 sec)
Heartbeat CPU 0 instructions: 280000003 cycles: 71192143 heartbeat IPC: 3.929 cumulative IPC: 3.929 (Simulation time: 00 hr 22 min 01 sec)
Heartbeat CPU 0 instructions: 290000000 cycles: 73737003 heartbeat IPC: 3.929 cumulative IPC: 3.929 (Simulation time: 00 hr 22 min 50 sec)
Heartbeat CPU 0 instructions: 300000002 cycles: 76281895 heartbeat IPC: 3.929 cumulative IPC: 3.929 (Simulation time: 00 hr 23 min 39 sec)
Heartbeat CPU 0 instructions: 310000001 cycles: 78826750 heartbeat IPC: 3.929 cumulative IPC: 3.929 (Simulation time: 00 hr 24 min 29 sec)
Heartbeat CPU 0 instructions: 320000001 cycles: 81371629 heartbeat IPC: 3.929 cumulative IPC: 3.929 (Simulation time: 00 hr 25 min 18 sec)
Heartbeat CPU 0 instructions: 330000000 cycles: 83916481 heartbeat IPC: 3.93 cumulative IPC: 3.929 (Simulation time: 00 hr 26 min 06 sec)
Heartbeat CPU 0 instructions: 340000004 cycles: 86461358 heartbeat IPC: 3.929 cumulative IPC: 3.929 (Simulation time: 00 hr 26 min 55 sec)
Heartbeat CPU 0 instructions: 350000004 cycles: 89006225 heartbeat IPC: 3.929 cumulative IPC: 3.929 (Simulation time: 00 hr 27 min 46 sec)
Heartbeat CPU 0 instructions: 360000003 cycles: 91551080 heartbeat IPC: 3.929 cumulative IPC: 3.929 (Simulation time: 00 hr 28 min 33 sec)
Heartbeat CPU 0 instructions: 370000002 cycles: 94095970 heartbeat IPC: 3.929 cumulative IPC: 3.929 (Simulation time: 00 hr 29 min 22 sec)
Heartbeat CPU 0 instructions: 380000002 cycles: 96640818 heartbeat IPC: 3.93 cumulative IPC: 3.929 (Simulation time: 00 hr 30 min 10 sec)
Heartbeat CPU 0 instructions: 390000001 cycles: 99185697 heartbeat IPC: 3.929 cumulative IPC: 3.929 (Simulation time: 00 hr 30 min 58 sec)
Heartbeat CPU 0 instructions: 400000001 cycles: 101730569 heartbeat IPC: 3.929 cumulative IPC: 3.929 (Simulation time: 00 hr 31 min 48 sec)
Heartbeat CPU 0 instructions: 410000000 cycles: 104275413 heartbeat IPC: 3.93 cumulative IPC: 3.929 (Simulation time: 00 hr 32 min 41 sec)
Heartbeat CPU 0 instructions: 420000004 cycles: 106820305 heartbeat IPC: 3.929 cumulative IPC: 3.929 (Simulation time: 00 hr 33 min 31 sec)
Heartbeat CPU 0 instructions: 430000002 cycles: 109365162 heartbeat IPC: 3.929 cumulative IPC: 3.929 (Simulation time: 00 hr 34 min 19 sec)
Heartbeat CPU 0 instructions: 440000003 cycles: 111910032 heartbeat IPC: 3.929 cumulative IPC: 3.929 (Simulation time: 00 hr 35 min 08 sec)
Heartbeat CPU 0 instructions: 450000002 cycles: 114454907 heartbeat IPC: 3.929 cumulative IPC: 3.929 (Simulation time: 00 hr 35 min 57 sec)
Heartbeat CPU 0 instructions: 460000002 cycles: 116999764 heartbeat IPC: 3.929 cumulative IPC: 3.929 (Simulation time: 00 hr 36 min 48 sec)
Heartbeat CPU 0 instructions: 470000001 cycles: 119544639 heartbeat IPC: 3.929 cumulative IPC: 3.929 (Simulation time: 00 hr 37 min 36 sec)
Heartbeat CPU 0 instructions: 480000001 cycles: 122089503 heartbeat IPC: 3.929 cumulative IPC: 3.929 (Simulation time: 00 hr 38 min 27 sec)
Heartbeat CPU 0 instructions: 490000000 cycles: 124634371 heartbeat IPC: 3.929 cumulative IPC: 3.929 (Simulation time: 00 hr 39 min 15 sec)
Heartbeat CPU 0 instructions: 500000004 cycles: 127179237 heartbeat IPC: 3.929 cumulative IPC: 3.929 (Simulation time: 00 hr 40 min 05 sec)
Heartbeat CPU 0 instructions: 510000004 cycles: 129724089 heartbeat IPC: 3.93 cumulative IPC: 3.929 (Simulation time: 00 hr 40 min 53 sec)
Heartbeat CPU 0 instructions: 520000003 cycles: 132268974 heartbeat IPC: 3.929 cumulative IPC: 3.929 (Simulation time: 00 hr 41 min 41 sec)
Heartbeat CPU 0 instructions: 530000002 cycles: 134813844 heartbeat IPC: 3.929 cumulative IPC: 3.929 (Simulation time: 00 hr 42 min 31 sec)
Heartbeat CPU 0 instructions: 540000002 cycles: 137358701 heartbeat IPC: 3.929 cumulative IPC: 3.929 (Simulation time: 00 hr 43 min 19 sec)
Heartbeat CPU 0 instructions: 550000001 cycles: 139903576 heartbeat IPC: 3.929 cumulative IPC: 3.929 (Simulation time: 00 hr 44 min 07 sec)
Heartbeat CPU 0 instructions: 560000001 cycles: 142448443 heartbeat IPC: 3.929 cumulative IPC: 3.929 (Simulation time: 00 hr 44 min 56 sec)
Heartbeat CPU 0 instructions: 570000000 cycles: 144993308 heartbeat IPC: 3.929 cumulative IPC: 3.929 (Simulation time: 00 hr 45 min 43 sec)
Heartbeat CPU 0 instructions: 580000004 cycles: 147538169 heartbeat IPC: 3.929 cumulative IPC: 3.929 (Simulation time: 00 hr 46 min 31 sec)
Heartbeat CPU 0 instructions: 590000004 cycles: 150083041 heartbeat IPC: 3.929 cumulative IPC: 3.929 (Simulation time: 00 hr 47 min 18 sec)
*** Reached end of trace: (0, "traces/stress_goto.champsimtrace")
Heartbeat CPU 0 instructions: 600000003 cycles: 152627906 heartbeat IPC: 3.929 cumulative IPC: 3.929 (Simulation time: 00 hr 48 min 04 sec)
Heartbeat CPU 0 instructions: 610000001 cycles: 155434114 heartbeat IPC: 3.564 cumulative IPC: 3.922 (Simulation time: 00 hr 48 min 49 sec)
Heartbeat CPU 0 instructions: 620000002 cycles: 157934115 heartbeat IPC: 4 cumulative IPC: 3.924 (Simulation time: 00 hr 49 min 33 sec)
Heartbeat CPU 0 instructions: 630000003 cycles: 160438927 heartbeat IPC: 3.992 cumulative IPC: 3.925 (Simulation time: 00 hr 50 min 17 sec)
Heartbeat CPU 0 instructions: 640000002 cycles: 162983818 heartbeat IPC: 3.929 cumulative IPC: 3.925 (Simulation time: 00 hr 51 min 04 sec)
Heartbeat CPU 0 instructions: 650000001 cycles: 165528678 heartbeat IPC: 3.929 cumulative IPC: 3.925 (Simulation time: 00 hr 51 min 51 sec)
Simulation finished CPU 0 instructions: 600000002 cycles: 152868505 cumulative IPC: 3.925 (Simulation time: 00 hr 51 min 51 sec)
Simulation complete CPU 0 instructions: 600000002 cycles: 152868505 cumulative IPC: 3.925 (Simulation time: 00 hr 51 min 51 sec)

ChampSim completed all CPUs

=== Simulation ===
CPU 0 runs traces/stress_goto.champsimtrace
Region of Interest Statistics

CPU 0 cumulative IPC: 3.925 instructions: 600000002 cycles: 152868505
CPU 0 Branch Prediction Accuracy: 100% MPKI: 0.01092 Average ROB Occupancy at Mispredict: 156.5
Branch type MPKI
BRANCH_DIRECT_JUMP: 8.33e-05
BRANCH_INDIRECT: 0.000297
BRANCH_CONDITIONAL: 0.0105
BRANCH_DIRECT_CALL: 1.67e-06
BRANCH_INDIRECT_CALL: 4.67e-05
BRANCH_RETURN: 2.17e-05

LLC TOTAL        ACCESS:    6442510 HIT:    6442085 MISS:        425
LLC LOAD         ACCESS:    3186735 HIT:    3186603 MISS:        132
LLC RFO          ACCESS:      34340 HIT:      34229 MISS:        111
LLC PREFETCH     ACCESS:    3186735 HIT:    3186596 MISS:        139
LLC WRITE        ACCESS:      34700 HIT:      34657 MISS:         43
LLC TRANSLATION  ACCESS:          0 HIT:          0 MISS:          0
LLC PREFETCH REQUESTED:    3186735 ISSUED:    3186735 USEFUL:         31 USELESS:         90
LLC AVERAGE MISS LATENCY: 350.4 cycles
cpu0_DTLB TOTAL        ACCESS:  127156479 HIT:  122262945 MISS:    4893534
cpu0_DTLB LOAD         ACCESS:  127156479 HIT:  122262945 MISS:    4893534
cpu0_DTLB RFO          ACCESS:          0 HIT:          0 MISS:          0
cpu0_DTLB PREFETCH     ACCESS:          0 HIT:          0 MISS:          0
cpu0_DTLB WRITE        ACCESS:          0 HIT:          0 MISS:          0
cpu0_DTLB TRANSLATION  ACCESS:          0 HIT:          0 MISS:          0
cpu0_DTLB PREFETCH REQUESTED:          0 ISSUED:          0 USEFUL:          0 USELESS:          0
cpu0_DTLB AVERAGE MISS LATENCY: 7.995 cycles
cpu0_ITLB TOTAL        ACCESS:       4783 HIT:       4538 MISS:        245
cpu0_ITLB LOAD         ACCESS:       4783 HIT:       4538 MISS:        245
cpu0_ITLB RFO          ACCESS:          0 HIT:          0 MISS:          0
cpu0_ITLB PREFETCH     ACCESS:          0 HIT:          0 MISS:          0
cpu0_ITLB WRITE        ACCESS:          0 HIT:          0 MISS:          0
cpu0_ITLB TRANSLATION  ACCESS:          0 HIT:          0 MISS:          0
cpu0_ITLB PREFETCH REQUESTED:          0 ISSUED:          0 USEFUL:          0 USELESS:          0
cpu0_ITLB AVERAGE MISS LATENCY: 2.351 cycles
cpu0_L1D TOTAL        ACCESS:  162428939 HIT:  155965213 MISS:    6463726
cpu0_L1D LOAD         ACCESS:   56124361 HIT:   50018732 MISS:    6105629
cpu0_L1D RFO          ACCESS:          0 HIT:          0 MISS:          0
cpu0_L1D PREFETCH     ACCESS:          0 HIT:          0 MISS:          0
cpu0_L1D WRITE        ACCESS:  106304578 HIT:  105946481 MISS:     358097
cpu0_L1D TRANSLATION  ACCESS:          0 HIT:          0 MISS:          0
cpu0_L1D PREFETCH REQUESTED:          0 ISSUED:          0 USEFUL:          0 USELESS:          0
cpu0_L1D AVERAGE MISS LATENCY: 19.79 cycles
cpu0_L1I TOTAL        ACCESS:       5520 HIT:       3180 MISS:       2340
cpu0_L1I LOAD         ACCESS:       5520 HIT:       3180 MISS:       2340
cpu0_L1I RFO          ACCESS:          0 HIT:          0 MISS:          0
cpu0_L1I PREFETCH     ACCESS:          0 HIT:          0 MISS:          0
cpu0_L1I WRITE        ACCESS:          0 HIT:          0 MISS:          0
cpu0_L1I TRANSLATION  ACCESS:          0 HIT:          0 MISS:          0
cpu0_L1I PREFETCH REQUESTED:          0 ISSUED:          0 USEFUL:          0 USELESS:          0
cpu0_L1I AVERAGE MISS LATENCY: 27.52 cycles
cpu0_L2C TOTAL        ACCESS:    6190540 HIT:    2969444 MISS:    3221096
cpu0_L2C LOAD         ACCESS:    6073445 HIT:    2886710 MISS:    3186735
cpu0_L2C RFO          ACCESS:      57257 HIT:      22917 MISS:      34340
cpu0_L2C PREFETCH     ACCESS:          0 HIT:          0 MISS:          0
cpu0_L2C WRITE        ACCESS:      59838 HIT:      59817 MISS:         21
cpu0_L2C TRANSLATION  ACCESS:          0 HIT:          0 MISS:          0
cpu0_L2C PREFETCH REQUESTED:          0 ISSUED:          0 USEFUL:          0 USELESS:          0
cpu0_L2C AVERAGE MISS LATENCY: 20.03 cycles
cpu0_STLB TOTAL        ACCESS:    4891214 HIT:    4891214 MISS:          0
cpu0_STLB LOAD         ACCESS:    4891214 HIT:    4891214 MISS:          0
cpu0_STLB RFO          ACCESS:          0 HIT:          0 MISS:          0
cpu0_STLB PREFETCH     ACCESS:          0 HIT:          0 MISS:          0
cpu0_STLB WRITE        ACCESS:          0 HIT:          0 MISS:          0
cpu0_STLB TRANSLATION  ACCESS:          0 HIT:          0 MISS:          0
cpu0_STLB PREFETCH REQUESTED:          0 ISSUED:          0 USEFUL:          0 USELESS:          0
cpu0_STLB AVERAGE MISS LATENCY: -nan cycles

DRAM Statistics

Channel 0 RQ ROW_BUFFER_HIT:        118
  ROW_BUFFER_MISS:        237
 AVG DBUS CONGESTED CYCLE: 3.743
WQ ROW_BUFFER_HIT: Channel 0 
  ROW_BUFFER_MISS:         24
  FULL:         60
