WARNING: physical memory size is smaller than virtual memory size.

*** ChampSim Multicore Out-of-Order Simulator ***
Warmup Instructions: 50000000
Simulation Instructions: 600000000
Number of CPUs: 1
Page size: 4096

Off-chip DRAM Size: 4 GiB Channels: 1 Width: 64-bit Data Race: 3200 MT/s
Heartbeat CPU 0 instructions: 10000001 cycles: 2565786 heartbeat IPC: 3.897 cumulative IPC: 3.897 (Simulation time: 00 hr 00 min 52 sec)
Heartbeat CPU 0 instructions: 20000001 cycles: 5065786 heartbeat IPC: 4 cumulative IPC: 3.948 (Simulation time: 00 hr 01 min 46 sec)
Heartbeat CPU 0 instructions: 30000000 cycles: 7570436 heartbeat IPC: 3.993 cumulative IPC: 3.963 (Simulation time: 00 hr 02 min 32 sec)
Heartbeat CPU 0 instructions: 40000001 cycles: 10115307 heartbeat IPC: 3.929 cumulative IPC: 3.954 (Simulation time: 00 hr 03 min 23 sec)
Heartbeat CPU 0 instructions: 50000004 cycles: 12660174 heartbeat IPC: 3.929 cumulative IPC: 3.949 (Simulation time: 00 hr 04 min 13 sec)
Warmup finished CPU 0 instructions: 50000004 cycles: 12660175 cumulative IPC: 3.949 (Simulation time: 00 hr 04 min 13 sec)
Warmup complete CPU 0 instructions: 50000004 cycles: 12660175 cumulative IPC: 3.949 (Simulation time: 00 hr 04 min 13 sec)
Heartbeat CPU 0 instructions: 60000002 cycles: 15448008 heartbeat IPC: 3.587 cumulative IPC: 3.587 (Simulation time: 00 hr 05 min 18 sec)
Heartbeat CPU 0 instructions: 70000001 cycles: 18235255 heartbeat IPC: 3.588 cumulative IPC: 3.587 (Simulation time: 00 hr 06 min 16 sec)
Heartbeat CPU 0 instructions: 80000001 cycles: 21021404 heartbeat IPC: 3.589 cumulative IPC: 3.588 (Simulation time: 00 hr 07 min 20 sec)
Heartbeat CPU 0 instructions: 90000000 cycles: 23808504 heartbeat IPC: 3.588 cumulative IPC: 3.588 (Simulation time: 00 hr 08 min 24 sec)
Heartbeat CPU 0 instructions: 100000004 cycles: 26595380 heartbeat IPC: 3.588 cumulative IPC: 3.588 (Simulation time: 00 hr 09 min 29 sec)
Heartbeat CPU 0 instructions: 110000004 cycles: 29383658 heartbeat IPC: 3.586 cumulative IPC: 3.588 (Simulation time: 00 hr 10 min 28 sec)
Heartbeat CPU 0 instructions: 120000003 cycles: 32170618 heartbeat IPC: 3.588 cumulative IPC: 3.588 (Simulation time: 00 hr 11 min 36 sec)
Heartbeat CPU 0 instructions: 130000002 cycles: 34957208 heartbeat IPC: 3.589 cumulative IPC: 3.588 (Simulation time: 00 hr 12 min 43 sec)
Heartbeat CPU 0 instructions: 140000002 cycles: 37744071 heartbeat IPC: 3.588 cumulative IPC: 3.588 (Simulation time: 00 hr 13 min 45 sec)
Heartbeat CPU 0 instructions: 150000001 cycles: 40529985 heartbeat IPC: 3.589 cumulative IPC: 3.588 (Simulation time: 00 hr 14 min 49 sec)
Heartbeat CPU 0 instructions: 160000001 cycles: 43318643 heartbeat IPC: 3.586 cumulative IPC: 3.588 (Simulation time: 00 hr 15 min 53 sec)
Heartbeat CPU 0 instructions: 170000000 cycles: 46104258 heartbeat IPC: 3.59 cumulative IPC: 3.588 (Simulation time: 00 hr 16 min 55 sec)
Heartbeat CPU 0 instructions: 180000002 cycles: 48892307 heartbeat IPC: 3.587 cumulative IPC: 3.588 (Simulation time: 00 hr 17 min 55 sec)
Heartbeat CPU 0 instructions: 190000004 cycles: 51681162 heartbeat IPC: 3.586 cumulative IPC: 3.588 (Simulation time: 00 hr 18 min 53 sec)
Heartbeat CPU 0 instructions: 200000003 cycles: 54468428 heartbeat IPC: 3.588 cumulative IPC: 3.588 (Simulation time: 00 hr 19 min 51 sec)
Heartbeat CPU 0 instructions: 210000002 cycles: 57256501 heartbeat IPC: 3.587 cumulative IPC: 3.588 (Simulation time: 00 hr 20 min 51 sec)
Heartbeat CPU 0 instructions: 220000002 cycles: 60046210 heartbeat IPC: 3.585 cumulative IPC: 3.588 (Simulation time: 00 hr 21 min 51 sec)
Heartbeat CPU 0 instructions: 230000001 cycles: 62833402 heartbeat IPC: 3.588 cumulative IPC: 3.588 (Simulation time: 00 hr 22 min 50 sec)
Heartbeat CPU 0 instructions: 240000001 cycles: 65621518 heartbeat IPC: 3.587 cumulative IPC: 3.588 (Simulation time: 00 hr 23 min 48 sec)
Heartbeat CPU 0 instructions: 250000000 cycles: 68410037 heartbeat IPC: 3.586 cumulative IPC: 3.587 (Simulation time: 00 hr 24 min 46 sec)
Heartbeat CPU 0 instructions: 260000004 cycles: 71198076 heartbeat IPC: 3.587 cumulative IPC: 3.587 (Simulation time: 00 hr 25 min 45 sec)
Heartbeat CPU 0 instructions: 270000004 cycles: 73985001 heartbeat IPC: 3.588 cumulative IPC: 3.587 (Simulation time: 00 hr 26 min 48 sec)
Heartbeat CPU 0 instructions: 280000003 cycles: 76773090 heartbeat IPC: 3.587 cumulative IPC: 3.587 (Simulation time: 00 hr 27 min 49 sec)
Heartbeat CPU 0 instructions: 290000000 cycles: 79559896 heartbeat IPC: 3.588 cumulative IPC: 3.587 (Simulation time: 00 hr 28 min 48 sec)
Heartbeat CPU 0 instructions: 300000002 cycles: 82345024 heartbeat IPC: 3.59 cumulative IPC: 3.588 (Simulation time: 00 hr 29 min 35 sec)
Heartbeat CPU 0 instructions: 310000001 cycles: 85133989 heartbeat IPC: 3.586 cumulative IPC: 3.588 (Simulation time: 00 hr 30 min 21 sec)
Heartbeat CPU 0 instructions: 320000001 cycles: 87921137 heartbeat IPC: 3.588 cumulative IPC: 3.588 (Simulation time: 00 hr 31 min 26 sec)
Heartbeat CPU 0 instructions: 330000000 cycles: 90708161 heartbeat IPC: 3.588 cumulative IPC: 3.588 (Simulation time: 00 hr 33 min 03 sec)
Heartbeat CPU 0 instructions: 340000004 cycles: 93497135 heartbeat IPC: 3.586 cumulative IPC: 3.587 (Simulation time: 00 hr 34 min 27 sec)
Heartbeat CPU 0 instructions: 350000004 cycles: 96285354 heartbeat IPC: 3.587 cumulative IPC: 3.587 (Simulation time: 00 hr 35 min 11 sec)
Heartbeat CPU 0 instructions: 360000003 cycles: 99073363 heartbeat IPC: 3.587 cumulative IPC: 3.587 (Simulation time: 00 hr 35 min 54 sec)
Heartbeat CPU 0 instructions: 370000002 cycles: 101860713 heartbeat IPC: 3.588 cumulative IPC: 3.587 (Simulation time: 00 hr 36 min 38 sec)
Heartbeat CPU 0 instructions: 380000002 cycles: 104648993 heartbeat IPC: 3.586 cumulative IPC: 3.587 (Simulation time: 00 hr 37 min 23 sec)
Heartbeat CPU 0 instructions: 390000001 cycles: 107435836 heartbeat IPC: 3.588 cumulative IPC: 3.587 (Simulation time: 00 hr 38 min 08 sec)
Heartbeat CPU 0 instructions: 400000001 cycles: 110224357 heartbeat IPC: 3.586 cumulative IPC: 3.587 (Simulation time: 00 hr 38 min 53 sec)
Heartbeat CPU 0 instructions: 410000000 cycles: 113011977 heartbeat IPC: 3.587 cumulative IPC: 3.587 (Simulation time: 00 hr 39 min 39 sec)
Heartbeat CPU 0 instructions: 420000004 cycles: 115799145 heartbeat IPC: 3.588 cumulative IPC: 3.587 (Simulation time: 00 hr 40 min 24 sec)
Heartbeat CPU 0 instructions: 430000002 cycles: 118585925 heartbeat IPC: 3.588 cumulative IPC: 3.587 (Simulation time: 00 hr 41 min 09 sec)
Heartbeat CPU 0 instructions: 440000003 cycles: 121375233 heartbeat IPC: 3.585 cumulative IPC: 3.587 (Simulation time: 00 hr 41 min 54 sec)
Heartbeat CPU 0 instructions: 450000002 cycles: 124163345 heartbeat IPC: 3.587 cumulative IPC: 3.587 (Simulation time: 00 hr 42 min 38 sec)
Heartbeat CPU 0 instructions: 460000002 cycles: 126953064 heartbeat IPC: 3.585 cumulative IPC: 3.587 (Simulation time: 00 hr 43 min 20 sec)
Heartbeat CPU 0 instructions: 470000001 cycles: 129742830 heartbeat IPC: 3.585 cumulative IPC: 3.587 (Simulation time: 00 hr 44 min 03 sec)
Heartbeat CPU 0 instructions: 480000001 cycles: 132530053 heartbeat IPC: 3.588 cumulative IPC: 3.587 (Simulation time: 00 hr 44 min 45 sec)
Heartbeat CPU 0 instructions: 490000000 cycles: 135319036 heartbeat IPC: 3.586 cumulative IPC: 3.587 (Simulation time: 00 hr 45 min 27 sec)
Heartbeat CPU 0 instructions: 500000004 cycles: 138106672 heartbeat IPC: 3.587 cumulative IPC: 3.587 (Simulation time: 00 hr 46 min 09 sec)
Heartbeat CPU 0 instructions: 510000004 cycles: 140895212 heartbeat IPC: 3.586 cumulative IPC: 3.587 (Simulation time: 00 hr 46 min 52 sec)
Heartbeat CPU 0 instructions: 520000003 cycles: 143684170 heartbeat IPC: 3.586 cumulative IPC: 3.587 (Simulation time: 00 hr 47 min 35 sec)
Heartbeat CPU 0 instructions: 530000002 cycles: 146473172 heartbeat IPC: 3.586 cumulative IPC: 3.587 (Simulation time: 00 hr 48 min 18 sec)
Heartbeat CPU 0 instructions: 540000002 cycles: 149260775 heartbeat IPC: 3.587 cumulative IPC: 3.587 (Simulation time: 00 hr 49 min 01 sec)
Heartbeat CPU 0 instructions: 550000001 cycles: 152050809 heartbeat IPC: 3.584 cumulative IPC: 3.587 (Simulation time: 00 hr 49 min 45 sec)
Heartbeat CPU 0 instructions: 560000001 cycles: 154838506 heartbeat IPC: 3.587 cumulative IPC: 3.587 (Simulation time: 00 hr 50 min 29 sec)
Heartbeat CPU 0 instructions: 570000000 cycles: 157625166 heartbeat IPC: 3.589 cumulative IPC: 3.587 (Simulation time: 00 hr 51 min 14 sec)
Heartbeat CPU 0 instructions: 580000004 cycles: 160412007 heartbeat IPC: 3.588 cumulative IPC: 3.587 (Simulation time: 00 hr 51 min 59 sec)
Heartbeat CPU 0 instructions: 590000004 cycles: 163199526 heartbeat IPC: 3.587 cumulative IPC: 3.587 (Simulation time: 00 hr 52 min 44 sec)
*** Reached end of trace: (0, "traces/stress_goto.champsimtrace")
Heartbeat CPU 0 instructions: 600000003 cycles: 165986755 heartbeat IPC: 3.588 cumulative IPC: 3.587 (Simulation time: 00 hr 53 min 26 sec)
Heartbeat CPU 0 instructions: 610000001 cycles: 169002246 heartbeat IPC: 3.316 cumulative IPC: 3.582 (Simulation time: 00 hr 54 min 12 sec)
Heartbeat CPU 0 instructions: 620000002 cycles: 171702002 heartbeat IPC: 3.704 cumulative IPC: 3.584 (Simulation time: 00 hr 54 min 56 sec)
Heartbeat CPU 0 instructions: 630000003 cycles: 174410884 heartbeat IPC: 3.692 cumulative IPC: 3.586 (Simulation time: 00 hr 55 min 39 sec)
Heartbeat CPU 0 instructions: 640000002 cycles: 177196829 heartbeat IPC: 3.589 cumulative IPC: 3.586 (Simulation time: 00 hr 56 min 23 sec)
Heartbeat CPU 0 instructions: 650000001 cycles: 179983879 heartbeat IPC: 3.588 cumulative IPC: 3.586 (Simulation time: 00 hr 57 min 06 sec)
Simulation finished CPU 0 instructions: 600000002 cycles: 167323706 cumulative IPC: 3.586 (Simulation time: 00 hr 57 min 06 sec)
Simulation complete CPU 0 instructions: 600000002 cycles: 167323706 cumulative IPC: 3.586 (Simulation time: 00 hr 57 min 06 sec)

ChampSim completed all CPUs

=== Simulation ===
CPU 0 runs traces/stress_goto.champsimtrace
Region of Interest Statistics

CPU 0 cumulative IPC: 3.586 instructions: 600000002 cycles: 167323706
CPU 0 Branch Prediction Accuracy: 99.34% MPKI: 1.442 Average ROB Occupancy at Mispredict: 120.2
Branch type MPKI
BRANCH_DIRECT_JUMP: 8.33e-05
BRANCH_INDIRECT: 0.000297
BRANCH_CONDITIONAL: 1.44
BRANCH_DIRECT_CALL: 1.67e-06
BRANCH_INDIRECT_CALL: 4.67e-05
BRANCH_RETURN: 2.17e-05

LLC TOTAL        ACCESS:    6441086 HIT:    6439830 MISS:       1256
LLC LOAD         ACCESS:    3185959 HIT:    3185339 MISS:        620
LLC RFO          ACCESS:      34341 HIT:      34337 MISS:          4
LLC PREFETCH     ACCESS:    3185959 HIT:    3185334 MISS:        625
LLC WRITE        ACCESS:      34827 HIT:      34820 MISS:          7
LLC TRANSLATION  ACCESS:          0 HIT:          0 MISS:          0
LLC PREFETCH REQUESTED:    3185959 ISSUED:    3185959 USEFUL:        209 USELESS:        354
LLC AVERAGE MISS LATENCY: 443.8 cycles
cpu0_DTLB TOTAL        ACCESS:  128947705 HIT:  124054276 MISS:    4893429
cpu0_DTLB LOAD         ACCESS:  128947705 HIT:  124054276 MISS:    4893429
cpu0_DTLB RFO          ACCESS:          0 HIT:          0 MISS:          0
cpu0_DTLB PREFETCH     ACCESS:          0 HIT:          0 MISS:          0
cpu0_DTLB WRITE        ACCESS:          0 HIT:          0 MISS:          0
cpu0_DTLB TRANSLATION  ACCESS:          0 HIT:          0 MISS:          0
cpu0_DTLB PREFETCH REQUESTED:          0 ISSUED:          0 USEFUL:          0 USELESS:          0
cpu0_DTLB AVERAGE MISS LATENCY: 7.995 cycles
cpu0_ITLB TOTAL        ACCESS:       4668 HIT:       4457 MISS:        211
cpu0_ITLB LOAD         ACCESS:       4668 HIT:       4457 MISS:        211
cpu0_ITLB RFO          ACCESS:          0 HIT:          0 MISS:          0
cpu0_ITLB PREFETCH     ACCESS:          0 HIT:          0 MISS:          0
cpu0_ITLB WRITE        ACCESS:          0 HIT:          0 MISS:          0
cpu0_ITLB TRANSLATION  ACCESS:          0 HIT:          0 MISS:          0
cpu0_ITLB PREFETCH REQUESTED:          0 ISSUED:          0 USEFUL:          0 USELESS:          0
cpu0_ITLB AVERAGE MISS LATENCY: 3.024 cycles
cpu0_L1D TOTAL        ACCESS:  164466026 HIT:  158060579 MISS:    6405447
cpu0_L1D LOAD         ACCESS:   58161407 HIT:   52056505 MISS:    6104902
cpu0_L1D RFO          ACCESS:          0 HIT:          0 MISS:          0
cpu0_L1D PREFETCH     ACCESS:          0 HIT:          0 MISS:          0
cpu0_L1D WRITE        ACCESS:  106304619 HIT:  106004074 MISS:     300545
cpu0_L1D TRANSLATION  ACCESS:          0 HIT:          0 MISS:          0
cpu0_L1D PREFETCH REQUESTED:          0 ISSUED:          0 USEFUL:          0 USELESS:          0
cpu0_L1D AVERAGE MISS LATENCY: 19.99 cycles
cpu0_L1I TOTAL        ACCESS:       5347 HIT:       3225 MISS:       2122
cpu0_L1I LOAD         ACCESS:       5347 HIT:       3225 MISS:       2122
cpu0_L1I RFO          ACCESS:          0 HIT:          0 MISS:          0
cpu0_L1I PREFETCH     ACCESS:          0 HIT:          0 MISS:          0
cpu0_L1I WRITE        ACCESS:          0 HIT:          0 MISS:          0
cpu0_L1I TRANSLATION  ACCESS:          0 HIT:          0 MISS:          0
cpu0_L1I PREFETCH REQUESTED:          0 ISSUED:          0 USEFUL:          0 USELESS:          0
cpu0_L1I AVERAGE MISS LATENCY: 34.93 cycles
cpu0_L2C TOTAL        ACCESS:    6147232 HIT:    2926783 MISS:    3220449
cpu0_L2C LOAD         ACCESS:    6073463 HIT:    2887504 MISS:    3185959
cpu0_L2C RFO          ACCESS:      36656 HIT:       2315 MISS:      34341
cpu0_L2C PREFETCH     ACCESS:          0 HIT:          0 MISS:          0
cpu0_L2C WRITE        ACCESS:      37113 HIT:      36964 MISS:        149
cpu0_L2C TRANSLATION  ACCESS:          0 HIT:          0 MISS:          0
cpu0_L2C PREFETCH REQUESTED:          0 ISSUED:          0 USEFUL:          0 USELESS:          0
cpu0_L2C AVERAGE MISS LATENCY: 20.09 cycles
cpu0_STLB TOTAL        ACCESS:    4891214 HIT:    4891214 MISS:          0
cpu0_STLB LOAD         ACCESS:    4891214 HIT:    4891214 MISS:          0
cpu0_STLB RFO          ACCESS:          0 HIT:          0 MISS:          0
cpu0_STLB PREFETCH     ACCESS:          0 HIT:          0 MISS:          0
cpu0_STLB WRITE        ACCESS:          0 HIT:          0 MISS:          0
cpu0_STLB TRANSLATION  ACCESS:          0 HIT:          0 MISS:          0
cpu0_STLB PREFETCH REQUESTED:          0 ISSUED:          0 USEFUL:          0 USELESS:          0
cpu0_STLB AVERAGE MISS LATENCY: -nan cycles

DRAM Statistics

Channel 0 RQ ROW_BUFFER_HIT:        102
  ROW_BUFFER_MISS:       1086
 AVG DBUS CONGESTED CYCLE: 3.397
WQ ROW_BUFFER_HIT: Channel 0 
  ROW_BUFFER_MISS:          1
  FULL:         19
