WARNING: physical memory size is smaller than virtual memory size.

*** ChampSim Multicore Out-of-Order Simulator ***
Warmup Instructions: 50000000
Simulation Instructions: 600000000
Number of CPUs: 1
Page size: 4096

Off-chip DRAM Size: 4 GiB Channels: 1 Width: 64-bit Data Race: 3200 MT/s
Heartbeat CPU 0 instructions: 10000001 cycles: 2565786 heartbeat IPC: 3.897 cumulative IPC: 3.897 (Simulation time: 00 hr 00 min 56 sec)
Heartbeat CPU 0 instructions: 20000001 cycles: 5065786 heartbeat IPC: 4 cumulative IPC: 3.948 (Simulation time: 00 hr 01 min 48 sec)
Heartbeat CPU 0 instructions: 30000000 cycles: 7570436 heartbeat IPC: 3.993 cumulative IPC: 3.963 (Simulation time: 00 hr 02 min 39 sec)
Heartbeat CPU 0 instructions: 40000001 cycles: 10115307 heartbeat IPC: 3.929 cumulative IPC: 3.954 (Simulation time: 00 hr 03 min 28 sec)
Heartbeat CPU 0 instructions: 50000004 cycles: 12660174 heartbeat IPC: 3.929 cumulative IPC: 3.949 (Simulation time: 00 hr 04 min 21 sec)
Warmup finished CPU 0 instructions: 50000004 cycles: 12660175 cumulative IPC: 3.949 (Simulation time: 00 hr 04 min 21 sec)
Warmup complete CPU 0 instructions: 50000004 cycles: 12660175 cumulative IPC: 3.949 (Simulation time: 00 hr 04 min 21 sec)
Heartbeat CPU 0 instructions: 60000002 cycles: 15465413 heartbeat IPC: 3.565 cumulative IPC: 3.565 (Simulation time: 00 hr 05 min 26 sec)
Heartbeat CPU 0 instructions: 70000001 cycles: 18269211 heartbeat IPC: 3.567 cumulative IPC: 3.566 (Simulation time: 00 hr 06 min 27 sec)
Heartbeat CPU 0 instructions: 80000001 cycles: 21072028 heartbeat IPC: 3.568 cumulative IPC: 3.566 (Simulation time: 00 hr 07 min 34 sec)
Heartbeat CPU 0 instructions: 90000000 cycles: 23879891 heartbeat IPC: 3.561 cumulative IPC: 3.565 (Simulation time: 00 hr 08 min 39 sec)
Heartbeat CPU 0 instructions: 100000004 cycles: 26685648 heartbeat IPC: 3.564 cumulative IPC: 3.565 (Simulation time: 00 hr 09 min 38 sec)
Heartbeat CPU 0 instructions: 110000004 cycles: 29495146 heartbeat IPC: 3.559 cumulative IPC: 3.564 (Simulation time: 00 hr 10 min 43 sec)
Heartbeat CPU 0 instructions: 120000003 cycles: 32296317 heartbeat IPC: 3.57 cumulative IPC: 3.565 (Simulation time: 00 hr 11 min 47 sec)
Heartbeat CPU 0 instructions: 130000002 cycles: 35101232 heartbeat IPC: 3.565 cumulative IPC: 3.565 (Simulation time: 00 hr 12 min 50 sec)
Heartbeat CPU 0 instructions: 140000002 cycles: 37907397 heartbeat IPC: 3.564 cumulative IPC: 3.565 (Simulation time: 00 hr 13 min 50 sec)
Heartbeat CPU 0 instructions: 150000001 cycles: 40711780 heartbeat IPC: 3.566 cumulative IPC: 3.565 (Simulation time: 00 hr 15 min 00 sec)
Heartbeat CPU 0 instructions: 160000001 cycles: 43520075 heartbeat IPC: 3.561 cumulative IPC: 3.564 (Simulation time: 00 hr 16 min 07 sec)
Heartbeat CPU 0 instructions: 170000000 cycles: 46325125 heartbeat IPC: 3.565 cumulative IPC: 3.565 (Simulation time: 00 hr 17 min 12 sec)
Heartbeat CPU 0 instructions: 180000002 cycles: 49125901 heartbeat IPC: 3.57 cumulative IPC: 3.565 (Simulation time: 00 hr 18 min 17 sec)
Heartbeat CPU 0 instructions: 190000004 cycles: 51929640 heartbeat IPC: 3.567 cumulative IPC: 3.565 (Simulation time: 00 hr 19 min 21 sec)
Heartbeat CPU 0 instructions: 200000003 cycles: 54731942 heartbeat IPC: 3.568 cumulative IPC: 3.565 (Simulation time: 00 hr 20 min 24 sec)
Heartbeat CPU 0 instructions: 210000002 cycles: 57539515 heartbeat IPC: 3.562 cumulative IPC: 3.565 (Simulation time: 00 hr 21 min 24 sec)
Heartbeat CPU 0 instructions: 220000002 cycles: 60344450 heartbeat IPC: 3.565 cumulative IPC: 3.565 (Simulation time: 00 hr 22 min 25 sec)
Heartbeat CPU 0 instructions: 230000001 cycles: 63148382 heartbeat IPC: 3.566 cumulative IPC: 3.565 (Simulation time: 00 hr 23 min 25 sec)
Heartbeat CPU 0 instructions: 240000001 cycles: 65949966 heartbeat IPC: 3.569 cumulative IPC: 3.565 (Simulation time: 00 hr 24 min 27 sec)
Heartbeat CPU 0 instructions: 250000000 cycles: 68757566 heartbeat IPC: 3.562 cumulative IPC: 3.565 (Simulation time: 00 hr 25 min 26 sec)
Heartbeat CPU 0 instructions: 260000004 cycles: 71563799 heartbeat IPC: 3.563 cumulative IPC: 3.565 (Simulation time: 00 hr 26 min 26 sec)
Heartbeat CPU 0 instructions: 270000004 cycles: 74368607 heartbeat IPC: 3.565 cumulative IPC: 3.565 (Simulation time: 00 hr 27 min 27 sec)
Heartbeat CPU 0 instructions: 280000003 cycles: 77171849 heartbeat IPC: 3.567 cumulative IPC: 3.565 (Simulation time: 00 hr 28 min 27 sec)
Heartbeat CPU 0 instructions: 290000000 cycles: 79979724 heartbeat IPC: 3.561 cumulative IPC: 3.565 (Simulation time: 00 hr 29 min 31 sec)
Heartbeat CPU 0 instructions: 300000002 cycles: 82782867 heartbeat IPC: 3.567 cumulative IPC: 3.565 (Simulation time: 00 hr 30 min 34 sec)
Heartbeat CPU 0 instructions: 310000001 cycles: 85585960 heartbeat IPC: 3.567 cumulative IPC: 3.565 (Simulation time: 00 hr 31 min 35 sec)
Heartbeat CPU 0 instructions: 320000001 cycles: 88386812 heartbeat IPC: 3.57 cumulative IPC: 3.565 (Simulation time: 00 hr 32 min 32 sec)
Heartbeat CPU 0 instructions: 330000000 cycles: 91186977 heartbeat IPC: 3.571 cumulative IPC: 3.566 (Simulation time: 00 hr 33 min 15 sec)
Heartbeat CPU 0 instructions: 340000004 cycles: 93990332 heartbeat IPC: 3.567 cumulative IPC: 3.566 (Simulation time: 00 hr 33 min 59 sec)
Heartbeat CPU 0 instructions: 350000004 cycles: 96791286 heartbeat IPC: 3.57 cumulative IPC: 3.566 (Simulation time: 00 hr 35 min 24 sec)
Heartbeat CPU 0 instructions: 360000003 cycles: 99594985 heartbeat IPC: 3.567 cumulative IPC: 3.566 (Simulation time: 00 hr 36 min 56 sec)
Heartbeat CPU 0 instructions: 370000002 cycles: 102401840 heartbeat IPC: 3.563 cumulative IPC: 3.566 (Simulation time: 00 hr 38 min 02 sec)
Heartbeat CPU 0 instructions: 380000002 cycles: 105207847 heartbeat IPC: 3.564 cumulative IPC: 3.566 (Simulation time: 00 hr 38 min 44 sec)
Heartbeat CPU 0 instructions: 390000001 cycles: 108014382 heartbeat IPC: 3.563 cumulative IPC: 3.566 (Simulation time: 00 hr 39 min 27 sec)
Heartbeat CPU 0 instructions: 400000001 cycles: 110819200 heartbeat IPC: 3.565 cumulative IPC: 3.566 (Simulation time: 00 hr 40 min 09 sec)
Heartbeat CPU 0 instructions: 410000000 cycles: 113625804 heartbeat IPC: 3.563 cumulative IPC: 3.566 (Simulation time: 00 hr 40 min 55 sec)
Heartbeat CPU 0 instructions: 420000004 cycles: 116432458 heartbeat IPC: 3.563 cumulative IPC: 3.565 (Simulation time: 00 hr 41 min 38 sec)
Heartbeat CPU 0 instructions: 430000002 cycles: 119238431 heartbeat IPC: 3.564 cumulative IPC: 3.565 (Simulation time: 00 hr 42 min 23 sec)
Heartbeat CPU 0 instructions: 440000003 cycles: 122045616 heartbeat IPC: 3.562 cumulative IPC: 3.565 (Simulation time: 00 hr 43 min 06 sec)
Heartbeat CPU 0 instructions: 450000002 cycles: 124852001 heartbeat IPC: 3.563 cumulative IPC: 3.565 (Simulation time: 00 hr 43 min 50 sec)
Heartbeat CPU 0 instructions: 460000002 cycles: 127657503 heartbeat IPC: 3.564 cumulative IPC: 3.565 (Simulation time: 00 hr 44 min 35 sec)
Heartbeat CPU 0 instructions: 470000001 cycles: 130463903 heartbeat IPC: 3.563 cumulative IPC: 3.565 (Simulation time: 00 hr 45 min 20 sec)
Heartbeat CPU 0 instructions: 480000001 cycles: 133270338 heartbeat IPC: 3.563 cumulative IPC: 3.565 (Simulation time: 00 hr 46 min 05 sec)
Heartbeat CPU 0 instructions: 490000000 cycles: 136075939 heartbeat IPC: 3.564 cumulative IPC: 3.565 (Simulation time: 00 hr 46 min 50 sec)
Heartbeat CPU 0 instructions: 500000004 cycles: 138875592 heartbeat IPC: 3.572 cumulative IPC: 3.565 (Simulation time: 00 hr 47 min 34 sec)
Heartbeat CPU 0 instructions: 510000004 cycles: 141680966 heartbeat IPC: 3.565 cumulative IPC: 3.565 (Simulation time: 00 hr 48 min 18 sec)
Heartbeat CPU 0 instructions: 520000003 cycles: 144487247 heartbeat IPC: 3.563 cumulative IPC: 3.565 (Simulation time: 00 hr 49 min 03 sec)
Heartbeat CPU 0 instructions: 530000002 cycles: 147296378 heartbeat IPC: 3.56 cumulative IPC: 3.565 (Simulation time: 00 hr 49 min 49 sec)
Heartbeat CPU 0 instructions: 540000002 cycles: 150101410 heartbeat IPC: 3.565 cumulative IPC: 3.565 (Simulation time: 00 hr 50 min 35 sec)
Heartbeat CPU 0 instructions: 550000001 cycles: 152908658 heartbeat IPC: 3.562 cumulative IPC: 3.565 (Simulation time: 00 hr 51 min 19 sec)
Heartbeat CPU 0 instructions: 560000001 cycles: 155716763 heartbeat IPC: 3.561 cumulative IPC: 3.565 (Simulation time: 00 hr 52 min 05 sec)
Heartbeat CPU 0 instructions: 570000000 cycles: 158524744 heartbeat IPC: 3.561 cumulative IPC: 3.565 (Simulation time: 00 hr 52 min 50 sec)
Heartbeat CPU 0 instructions: 580000004 cycles: 161325551 heartbeat IPC: 3.57 cumulative IPC: 3.565 (Simulation time: 00 hr 53 min 35 sec)
Heartbeat CPU 0 instructions: 590000004 cycles: 164130978 heartbeat IPC: 3.565 cumulative IPC: 3.565 (Simulation time: 00 hr 54 min 22 sec)
*** Reached end of trace: (0, "traces/stress_goto.champsimtrace")
Heartbeat CPU 0 instructions: 600000003 cycles: 166935790 heartbeat IPC: 3.565 cumulative IPC: 3.565 (Simulation time: 00 hr 55 min 06 sec)
Heartbeat CPU 0 instructions: 610000001 cycles: 169915179 heartbeat IPC: 3.356 cumulative IPC: 3.561 (Simulation time: 00 hr 55 min 48 sec)
Heartbeat CPU 0 instructions: 620000002 cycles: 172614935 heartbeat IPC: 3.704 cumulative IPC: 3.564 (Simulation time: 00 hr 56 min 26 sec)
Heartbeat CPU 0 instructions: 630000003 cycles: 175323817 heartbeat IPC: 3.692 cumulative IPC: 3.566 (Simulation time: 00 hr 57 min 05 sec)
Heartbeat CPU 0 instructions: 640000002 cycles: 178120417 heartbeat IPC: 3.576 cumulative IPC: 3.566 (Simulation time: 00 hr 57 min 51 sec)
Heartbeat CPU 0 instructions: 650000001 cycles: 180924123 heartbeat IPC: 3.567 cumulative IPC: 3.566 (Simulation time: 00 hr 58 min 38 sec)
Simulation finished CPU 0 instructions: 600000002 cycles: 168263950 cumulative IPC: 3.566 (Simulation time: 00 hr 58 min 38 sec)
Simulation complete CPU 0 instructions: 600000002 cycles: 168263950 cumulative IPC: 3.566 (Simulation time: 00 hr 58 min 38 sec)

ChampSim completed all CPUs

=== Simulation ===
CPU 0 runs traces/stress_goto.champsimtrace
Region of Interest Statistics

CPU 0 cumulative IPC: 3.566 instructions: 600000002 cycles: 168263950
CPU 0 Branch Prediction Accuracy: 99.34% MPKI: 1.442 Average ROB Occupancy at Mispredict: 120.6
Branch type MPKI
BRANCH_DIRECT_JUMP: 8.33e-05
BRANCH_INDIRECT: 0.000297
BRANCH_CONDITIONAL: 1.44
BRANCH_DIRECT_CALL: 1.67e-06
BRANCH_INDIRECT_CALL: 4.67e-05
BRANCH_RETURN: 2.17e-05

LLC TOTAL        ACCESS:    3261593 HIT:    3258379 MISS:       3214
LLC LOAD         ACCESS:    3185968 HIT:    3182907 MISS:       3061
LLC RFO          ACCESS:      34342 HIT:      34253 MISS:         89
LLC PREFETCH     ACCESS:       6450 HIT:       6428 MISS:         22
LLC WRITE        ACCESS:      34833 HIT:      34791 MISS:         42
LLC TRANSLATION  ACCESS:          0 HIT:          0 MISS:          0
LLC PREFETCH REQUESTED:       6450 ISSUED:       6450 USEFUL:          5 USELESS:          4
LLC AVERAGE MISS LATENCY: 437.4 cycles
cpu0_DTLB TOTAL        ACCESS:  128906460 HIT:  124013024 MISS:    4893436
cpu0_DTLB LOAD         ACCESS:  128906460 HIT:  124013024 MISS:    4893436
cpu0_DTLB RFO          ACCESS:          0 HIT:          0 MISS:          0
cpu0_DTLB PREFETCH     ACCESS:          0 HIT:          0 MISS:          0
cpu0_DTLB WRITE        ACCESS:          0 HIT:          0 MISS:          0
cpu0_DTLB TRANSLATION  ACCESS:          0 HIT:          0 MISS:          0
cpu0_DTLB PREFETCH REQUESTED:          0 ISSUED:          0 USEFUL:          0 USELESS:          0
cpu0_DTLB AVERAGE MISS LATENCY: 7.995 cycles
cpu0_ITLB TOTAL        ACCESS:       4669 HIT:       4458 MISS:        211
cpu0_ITLB LOAD         ACCESS:       4669 HIT:       4458 MISS:        211
cpu0_ITLB RFO          ACCESS:          0 HIT:          0 MISS:          0
cpu0_ITLB PREFETCH     ACCESS:          0 HIT:          0 MISS:          0
cpu0_ITLB WRITE        ACCESS:          0 HIT:          0 MISS:          0
cpu0_ITLB TRANSLATION  ACCESS:          0 HIT:          0 MISS:          0
cpu0_ITLB PREFETCH REQUESTED:          0 ISSUED:          0 USEFUL:          0 USELESS:          0
cpu0_ITLB AVERAGE MISS LATENCY: 3.024 cycles
cpu0_L1D TOTAL        ACCESS:  164463072 HIT:  158057265 MISS:    6405807
cpu0_L1D LOAD         ACCESS:   58158569 HIT:   52053460 MISS:    6105109
cpu0_L1D RFO          ACCESS:          0 HIT:          0 MISS:          0
cpu0_L1D PREFETCH     ACCESS:          0 HIT:          0 MISS:          0
cpu0_L1D WRITE        ACCESS:  106304503 HIT:  106003805 MISS:     300698
cpu0_L1D TRANSLATION  ACCESS:          0 HIT:          0 MISS:          0
cpu0_L1D PREFETCH REQUESTED:          0 ISSUED:          0 USEFUL:          0 USELESS:          0
cpu0_L1D AVERAGE MISS LATENCY: 20.16 cycles
cpu0_L1I TOTAL        ACCESS:       5351 HIT:       3224 MISS:       2127
cpu0_L1I LOAD         ACCESS:       5351 HIT:       3224 MISS:       2127
cpu0_L1I RFO          ACCESS:          0 HIT:          0 MISS:          0
cpu0_L1I PREFETCH     ACCESS:          0 HIT:          0 MISS:          0
cpu0_L1I WRITE        ACCESS:          0 HIT:          0 MISS:          0
cpu0_L1I TRANSLATION  ACCESS:          0 HIT:          0 MISS:          0
cpu0_L1I PREFETCH REQUESTED:          0 ISSUED:          0 USEFUL:          0 USELESS:          0
cpu0_L1I AVERAGE MISS LATENCY: 27.11 cycles
cpu0_L2C TOTAL        ACCESS:    6147158 HIT:    2926695 MISS:    3220463
cpu0_L2C LOAD         ACCESS:    6073461 HIT:    2887493 MISS:    3185968
cpu0_L2C RFO          ACCESS:      36621 HIT:       2279 MISS:      34342
cpu0_L2C PREFETCH     ACCESS:          0 HIT:          0 MISS:          0
cpu0_L2C WRITE        ACCESS:      37076 HIT:      36923 MISS:        153
cpu0_L2C TRANSLATION  ACCESS:          0 HIT:          0 MISS:          0
cpu0_L2C PREFETCH REQUESTED:          0 ISSUED:          0 USEFUL:          0 USELESS:          0
cpu0_L2C AVERAGE MISS LATENCY: 20.44 cycles
cpu0_STLB TOTAL        ACCESS:    4891214 HIT:    4891214 MISS:          0
cpu0_STLB LOAD         ACCESS:    4891214 HIT:    4891214 MISS:          0
cpu0_STLB RFO          ACCESS:          0 HIT:          0 MISS:          0
cpu0_STLB PREFETCH     ACCESS:          0 HIT:          0 MISS:          0
cpu0_STLB WRITE        ACCESS:          0 HIT:          0 MISS:          0
cpu0_STLB TRANSLATION  ACCESS:          0 HIT:          0 MISS:          0
cpu0_STLB PREFETCH REQUESTED:          0 ISSUED:          0 USEFUL:          0 USELESS:          0
cpu0_STLB AVERAGE MISS LATENCY: -nan cycles

DRAM Statistics

Channel 0 RQ ROW_BUFFER_HIT:        502
  ROW_BUFFER_MISS:       2656
 AVG DBUS CONGESTED CYCLE: 3.896
WQ ROW_BUFFER_HIT: Channel 0 
  ROW_BUFFER_MISS:         24
  FULL:         66
