WARNING: physical memory size is smaller than virtual memory size.

*** ChampSim Multicore Out-of-Order Simulator ***
Warmup Instructions: 50000000
Simulation Instructions: 600000000
Number of CPUs: 1
Page size: 4096

Off-chip DRAM Size: 4 GiB Channels: 1 Width: 64-bit Data Race: 3200 MT/s
Heartbeat CPU 0 instructions: 10000001 cycles: 2565786 heartbeat IPC: 3.897 cumulative IPC: 3.897 (Simulation time: 00 hr 01 min 02 sec)
Heartbeat CPU 0 instructions: 20000001 cycles: 5065786 heartbeat IPC: 4 cumulative IPC: 3.948 (Simulation time: 00 hr 01 min 52 sec)
Heartbeat CPU 0 instructions: 30000000 cycles: 7570436 heartbeat IPC: 3.993 cumulative IPC: 3.963 (Simulation time: 00 hr 02 min 50 sec)
Heartbeat CPU 0 instructions: 40000001 cycles: 10115307 heartbeat IPC: 3.929 cumulative IPC: 3.954 (Simulation time: 00 hr 03 min 45 sec)
Heartbeat CPU 0 instructions: 50000004 cycles: 12660174 heartbeat IPC: 3.929 cumulative IPC: 3.949 (Simulation time: 00 hr 04 min 43 sec)
Warmup finished CPU 0 instructions: 50000004 cycles: 12660175 cumulative IPC: 3.949 (Simulation time: 00 hr 04 min 43 sec)
Warmup complete CPU 0 instructions: 50000004 cycles: 12660175 cumulative IPC: 3.949 (Simulation time: 00 hr 04 min 43 sec)
Heartbeat CPU 0 instructions: 60000002 cycles: 15432112 heartbeat IPC: 3.608 cumulative IPC: 3.608 (Simulation time: 00 hr 05 min 51 sec)
Heartbeat CPU 0 instructions: 70000001 cycles: 18197522 heartbeat IPC: 3.616 cumulative IPC: 3.612 (Simulation time: 00 hr 06 min 57 sec)
Heartbeat CPU 0 instructions: 80000001 cycles: 20965177 heartbeat IPC: 3.613 cumulative IPC: 3.612 (Simulation time: 00 hr 08 min 00 sec)
Heartbeat CPU 0 instructions: 90000000 cycles: 23737080 heartbeat IPC: 3.608 cumulative IPC: 3.611 (Simulation time: 00 hr 09 min 07 sec)
Heartbeat CPU 0 instructions: 100000004 cycles: 26498302 heartbeat IPC: 3.622 cumulative IPC: 3.613 (Simulation time: 00 hr 10 min 12 sec)
Heartbeat CPU 0 instructions: 110000004 cycles: 29264069 heartbeat IPC: 3.616 cumulative IPC: 3.614 (Simulation time: 00 hr 11 min 16 sec)
Heartbeat CPU 0 instructions: 120000003 cycles: 32026782 heartbeat IPC: 3.62 cumulative IPC: 3.614 (Simulation time: 00 hr 12 min 22 sec)
Heartbeat CPU 0 instructions: 130000002 cycles: 34792592 heartbeat IPC: 3.616 cumulative IPC: 3.615 (Simulation time: 00 hr 13 min 25 sec)
Heartbeat CPU 0 instructions: 140000002 cycles: 37563423 heartbeat IPC: 3.609 cumulative IPC: 3.614 (Simulation time: 00 hr 14 min 25 sec)
Heartbeat CPU 0 instructions: 150000001 cycles: 40330075 heartbeat IPC: 3.614 cumulative IPC: 3.614 (Simulation time: 00 hr 15 min 29 sec)
Heartbeat CPU 0 instructions: 160000001 cycles: 43099146 heartbeat IPC: 3.611 cumulative IPC: 3.614 (Simulation time: 00 hr 16 min 33 sec)
Heartbeat CPU 0 instructions: 170000000 cycles: 45863473 heartbeat IPC: 3.618 cumulative IPC: 3.614 (Simulation time: 00 hr 17 min 34 sec)
Heartbeat CPU 0 instructions: 180000002 cycles: 48637402 heartbeat IPC: 3.605 cumulative IPC: 3.613 (Simulation time: 00 hr 18 min 34 sec)
Heartbeat CPU 0 instructions: 190000004 cycles: 51400573 heartbeat IPC: 3.619 cumulative IPC: 3.614 (Simulation time: 00 hr 19 min 43 sec)
Heartbeat CPU 0 instructions: 200000003 cycles: 54172420 heartbeat IPC: 3.608 cumulative IPC: 3.613 (Simulation time: 00 hr 20 min 53 sec)
Heartbeat CPU 0 instructions: 210000002 cycles: 56938181 heartbeat IPC: 3.616 cumulative IPC: 3.614 (Simulation time: 00 hr 21 min 56 sec)
Heartbeat CPU 0 instructions: 220000002 cycles: 59702557 heartbeat IPC: 3.617 cumulative IPC: 3.614 (Simulation time: 00 hr 23 min 02 sec)
Heartbeat CPU 0 instructions: 230000001 cycles: 62464891 heartbeat IPC: 3.62 cumulative IPC: 3.614 (Simulation time: 00 hr 24 min 07 sec)
Heartbeat CPU 0 instructions: 240000001 cycles: 65228154 heartbeat IPC: 3.619 cumulative IPC: 3.614 (Simulation time: 00 hr 25 min 10 sec)
Heartbeat CPU 0 instructions: 250000000 cycles: 67993355 heartbeat IPC: 3.616 cumulative IPC: 3.614 (Simulation time: 00 hr 26 min 10 sec)
Heartbeat CPU 0 instructions: 260000004 cycles: 70758129 heartbeat IPC: 3.617 cumulative IPC: 3.615 (Simulation time: 00 hr 27 min 11 sec)
Heartbeat CPU 0 instructions: 270000004 cycles: 73529272 heartbeat IPC: 3.609 cumulative IPC: 3.614 (Simulation time: 00 hr 28 min 11 sec)
Heartbeat CPU 0 instructions: 280000003 cycles: 76294126 heartbeat IPC: 3.617 cumulative IPC: 3.614 (Simulation time: 00 hr 29 min 12 sec)
Heartbeat CPU 0 instructions: 290000000 cycles: 79056089 heartbeat IPC: 3.621 cumulative IPC: 3.615 (Simulation time: 00 hr 30 min 12 sec)
Heartbeat CPU 0 instructions: 300000002 cycles: 81818196 heartbeat IPC: 3.62 cumulative IPC: 3.615 (Simulation time: 00 hr 31 min 11 sec)
Heartbeat CPU 0 instructions: 310000001 cycles: 84579217 heartbeat IPC: 3.622 cumulative IPC: 3.615 (Simulation time: 00 hr 32 min 12 sec)
Heartbeat CPU 0 instructions: 320000001 cycles: 87344662 heartbeat IPC: 3.616 cumulative IPC: 3.615 (Simulation time: 00 hr 33 min 13 sec)
Heartbeat CPU 0 instructions: 330000000 cycles: 90110900 heartbeat IPC: 3.615 cumulative IPC: 3.615 (Simulation time: 00 hr 34 min 16 sec)
Heartbeat CPU 0 instructions: 340000004 cycles: 92877171 heartbeat IPC: 3.615 cumulative IPC: 3.615 (Simulation time: 00 hr 35 min 19 sec)
Heartbeat CPU 0 instructions: 350000004 cycles: 95639708 heartbeat IPC: 3.62 cumulative IPC: 3.615 (Simulation time: 00 hr 36 min 20 sec)
Heartbeat CPU 0 instructions: 360000003 cycles: 98404640 heartbeat IPC: 3.617 cumulative IPC: 3.615 (Simulation time: 00 hr 37 min 16 sec)
Heartbeat CPU 0 instructions: 370000002 cycles: 101169039 heartbeat IPC: 3.617 cumulative IPC: 3.615 (Simulation time: 00 hr 38 min 00 sec)
Heartbeat CPU 0 instructions: 380000002 cycles: 103940642 heartbeat IPC: 3.608 cumulative IPC: 3.615 (Simulation time: 00 hr 38 min 46 sec)
Heartbeat CPU 0 instructions: 390000001 cycles: 106706718 heartbeat IPC: 3.615 cumulative IPC: 3.615 (Simulation time: 00 hr 40 min 18 sec)
Heartbeat CPU 0 instructions: 400000001 cycles: 109474858 heartbeat IPC: 3.613 cumulative IPC: 3.615 (Simulation time: 00 hr 41 min 54 sec)
Heartbeat CPU 0 instructions: 410000000 cycles: 112242947 heartbeat IPC: 3.613 cumulative IPC: 3.615 (Simulation time: 00 hr 42 min 50 sec)
Heartbeat CPU 0 instructions: 420000004 cycles: 115007818 heartbeat IPC: 3.617 cumulative IPC: 3.615 (Simulation time: 00 hr 43 min 33 sec)
Heartbeat CPU 0 instructions: 430000002 cycles: 117777503 heartbeat IPC: 3.611 cumulative IPC: 3.615 (Simulation time: 00 hr 44 min 16 sec)
Heartbeat CPU 0 instructions: 440000003 cycles: 120543449 heartbeat IPC: 3.615 cumulative IPC: 3.615 (Simulation time: 00 hr 44 min 59 sec)
Heartbeat CPU 0 instructions: 450000002 cycles: 123302006 heartbeat IPC: 3.625 cumulative IPC: 3.615 (Simulation time: 00 hr 45 min 43 sec)
Heartbeat CPU 0 instructions: 460000002 cycles: 126070754 heartbeat IPC: 3.612 cumulative IPC: 3.615 (Simulation time: 00 hr 46 min 27 sec)
Heartbeat CPU 0 instructions: 470000001 cycles: 128838988 heartbeat IPC: 3.612 cumulative IPC: 3.615 (Simulation time: 00 hr 47 min 12 sec)
Heartbeat CPU 0 instructions: 480000001 cycles: 131607695 heartbeat IPC: 3.612 cumulative IPC: 3.615 (Simulation time: 00 hr 47 min 57 sec)
Heartbeat CPU 0 instructions: 490000000 cycles: 134375695 heartbeat IPC: 3.613 cumulative IPC: 3.615 (Simulation time: 00 hr 48 min 41 sec)
Heartbeat CPU 0 instructions: 500000004 cycles: 137138557 heartbeat IPC: 3.619 cumulative IPC: 3.615 (Simulation time: 00 hr 49 min 24 sec)
Heartbeat CPU 0 instructions: 510000004 cycles: 139912609 heartbeat IPC: 3.605 cumulative IPC: 3.615 (Simulation time: 00 hr 50 min 07 sec)
Heartbeat CPU 0 instructions: 520000003 cycles: 142682548 heartbeat IPC: 3.61 cumulative IPC: 3.615 (Simulation time: 00 hr 50 min 50 sec)
Heartbeat CPU 0 instructions: 530000002 cycles: 145450834 heartbeat IPC: 3.612 cumulative IPC: 3.615 (Simulation time: 00 hr 51 min 33 sec)
Heartbeat CPU 0 instructions: 540000002 cycles: 148216411 heartbeat IPC: 3.616 cumulative IPC: 3.615 (Simulation time: 00 hr 52 min 16 sec)
Heartbeat CPU 0 instructions: 550000001 cycles: 150989817 heartbeat IPC: 3.606 cumulative IPC: 3.615 (Simulation time: 00 hr 52 min 59 sec)
Heartbeat CPU 0 instructions: 560000001 cycles: 153752046 heartbeat IPC: 3.62 cumulative IPC: 3.615 (Simulation time: 00 hr 53 min 42 sec)
Heartbeat CPU 0 instructions: 570000000 cycles: 156523674 heartbeat IPC: 3.608 cumulative IPC: 3.615 (Simulation time: 00 hr 54 min 25 sec)
Heartbeat CPU 0 instructions: 580000004 cycles: 159292135 heartbeat IPC: 3.612 cumulative IPC: 3.614 (Simulation time: 00 hr 55 min 08 sec)
Heartbeat CPU 0 instructions: 590000004 cycles: 162055945 heartbeat IPC: 3.618 cumulative IPC: 3.615 (Simulation time: 00 hr 55 min 50 sec)
*** Reached end of trace: (0, "traces/stress_goto.champsimtrace")
Heartbeat CPU 0 instructions: 600000003 cycles: 164823227 heartbeat IPC: 3.614 cumulative IPC: 3.615 (Simulation time: 00 hr 56 min 33 sec)
Heartbeat CPU 0 instructions: 610000001 cycles: 167807219 heartbeat IPC: 3.351 cumulative IPC: 3.609 (Simulation time: 00 hr 57 min 14 sec)
Heartbeat CPU 0 instructions: 620000002 cycles: 170459370 heartbeat IPC: 3.771 cumulative IPC: 3.612 (Simulation time: 00 hr 57 min 52 sec)
Heartbeat CPU 0 instructions: 630000003 cycles: 173119648 heartbeat IPC: 3.759 cumulative IPC: 3.615 (Simulation time: 00 hr 58 min 30 sec)
Heartbeat CPU 0 instructions: 640000002 cycles: 175883221 heartbeat IPC: 3.619 cumulative IPC: 3.615 (Simulation time: 00 hr 59 min 14 sec)
Heartbeat CPU 0 instructions: 650000001 cycles: 178641533 heartbeat IPC: 3.625 cumulative IPC: 3.615 (Simulation time: 00 hr 59 min 57 sec)
Simulation finished CPU 0 instructions: 600000002 cycles: 165981360 cumulative IPC: 3.615 (Simulation time: 00 hr 59 min 57 sec)
Simulation complete CPU 0 instructions: 600000002 cycles: 165981360 cumulative IPC: 3.615 (Simulation time: 00 hr 59 min 57 sec)

ChampSim completed all CPUs

=== Simulation ===
CPU 0 runs traces/stress_goto.champsimtrace
Region of Interest Statistics

CPU 0 cumulative IPC: 3.615 instructions: 600000002 cycles: 165981360
CPU 0 Branch Prediction Accuracy: 99.5% MPKI: 1.091 Average ROB Occupancy at Mispredict: 125.9
Branch type MPKI
BRANCH_DIRECT_JUMP: 8.33e-05
BRANCH_INDIRECT: 0.000297
BRANCH_CONDITIONAL: 1.09
BRANCH_DIRECT_CALL: 1.67e-06
BRANCH_INDIRECT_CALL: 4.67e-05
BRANCH_RETURN: 2.17e-05

LLC TOTAL        ACCESS:    6441115 HIT:    6428926 MISS:      12189
LLC LOAD         ACCESS:    3185962 HIT:    3180029 MISS:       5933
LLC RFO          ACCESS:      34341 HIT:      34152 MISS:        189
LLC PREFETCH     ACCESS:    3185962 HIT:    3180128 MISS:       5834
LLC WRITE        ACCESS:      34850 HIT:      34617 MISS:        233
LLC TRANSLATION  ACCESS:          0 HIT:          0 MISS:          0
LLC PREFETCH REQUESTED:    3185962 ISSUED:    3185962 USEFUL:       2033 USELESS:       3767
LLC AVERAGE MISS LATENCY: 424.9 cycles
cpu0_DTLB TOTAL        ACCESS:  128449949 HIT:  123556443 MISS:    4893506
cpu0_DTLB LOAD         ACCESS:  128449949 HIT:  123556443 MISS:    4893506
cpu0_DTLB RFO          ACCESS:          0 HIT:          0 MISS:          0
cpu0_DTLB PREFETCH     ACCESS:          0 HIT:          0 MISS:          0
cpu0_DTLB WRITE        ACCESS:          0 HIT:          0 MISS:          0
cpu0_DTLB TRANSLATION  ACCESS:          0 HIT:          0 MISS:          0
cpu0_DTLB PREFETCH REQUESTED:          0 ISSUED:          0 USEFUL:          0 USELESS:          0
cpu0_DTLB AVERAGE MISS LATENCY: 7.995 cycles
cpu0_ITLB TOTAL        ACCESS:       4678 HIT:       4448 MISS:        230
cpu0_ITLB LOAD         ACCESS:       4678 HIT:       4448 MISS:        230
cpu0_ITLB RFO          ACCESS:          0 HIT:          0 MISS:          0
cpu0_ITLB PREFETCH     ACCESS:          0 HIT:          0 MISS:          0
cpu0_ITLB WRITE        ACCESS:          0 HIT:          0 MISS:          0
cpu0_ITLB TRANSLATION  ACCESS:          0 HIT:          0 MISS:          0
cpu0_ITLB PREFETCH REQUESTED:          0 ISSUED:          0 USEFUL:          0 USELESS:          0
cpu0_ITLB AVERAGE MISS LATENCY: 2.557 cycles
cpu0_L1D TOTAL        ACCESS:  163755600 HIT:  157348724 MISS:    6406876
cpu0_L1D LOAD         ACCESS:   57450978 HIT:   51345920 MISS:    6105058
cpu0_L1D RFO          ACCESS:          0 HIT:          0 MISS:          0
cpu0_L1D PREFETCH     ACCESS:          0 HIT:          0 MISS:          0
cpu0_L1D WRITE        ACCESS:  106304622 HIT:  106002804 MISS:     301818
cpu0_L1D TRANSLATION  ACCESS:          0 HIT:          0 MISS:          0
cpu0_L1D PREFETCH REQUESTED:          0 ISSUED:          0 USEFUL:          0 USELESS:          0
cpu0_L1D AVERAGE MISS LATENCY: 20.35 cycles
cpu0_L1I TOTAL        ACCESS:       5361 HIT:       3103 MISS:       2258
cpu0_L1I LOAD         ACCESS:       5361 HIT:       3103 MISS:       2258
cpu0_L1I RFO          ACCESS:          0 HIT:          0 MISS:          0
cpu0_L1I PREFETCH     ACCESS:          0 HIT:          0 MISS:          0
cpu0_L1I WRITE        ACCESS:          0 HIT:          0 MISS:          0
cpu0_L1I TRANSLATION  ACCESS:          0 HIT:          0 MISS:          0
cpu0_L1I PREFETCH REQUESTED:          0 ISSUED:          0 USEFUL:          0 USELESS:          0
cpu0_L1I AVERAGE MISS LATENCY: 26.17 cycles
cpu0_L2C TOTAL        ACCESS:    6147118 HIT:    2926639 MISS:    3220479
cpu0_L2C LOAD         ACCESS:    6073460 HIT:    2887497 MISS:    3185963
cpu0_L2C RFO          ACCESS:      36599 HIT:       2258 MISS:      34341
cpu0_L2C PREFETCH     ACCESS:          0 HIT:          0 MISS:          0
cpu0_L2C WRITE        ACCESS:      37059 HIT:      36884 MISS:        175
cpu0_L2C TRANSLATION  ACCESS:          0 HIT:          0 MISS:          0
cpu0_L2C PREFETCH REQUESTED:          0 ISSUED:          0 USEFUL:          0 USELESS:          0
cpu0_L2C AVERAGE MISS LATENCY: 20.82 cycles
cpu0_STLB TOTAL        ACCESS:    4891219 HIT:    4891219 MISS:          0
cpu0_STLB LOAD         ACCESS:    4891219 HIT:    4891219 MISS:          0
cpu0_STLB RFO          ACCESS:          0 HIT:          0 MISS:          0
cpu0_STLB PREFETCH     ACCESS:          0 HIT:          0 MISS:          0
cpu0_STLB WRITE        ACCESS:          0 HIT:          0 MISS:          0
cpu0_STLB TRANSLATION  ACCESS:          0 HIT:          0 MISS:          0
cpu0_STLB PREFETCH REQUESTED:          0 ISSUED:          0 USEFUL:          0 USELESS:          0
cpu0_STLB AVERAGE MISS LATENCY: -nan cycles

DRAM Statistics

Channel 0 RQ ROW_BUFFER_HIT:       2272
  ROW_BUFFER_MISS:       9647
 AVG DBUS CONGESTED CYCLE: 3.822
WQ ROW_BUFFER_HIT: Channel 0 
  ROW_BUFFER_MISS:         47
  FULL:        286
