WARNING: physical memory size is smaller than virtual memory size.

*** ChampSim Multicore Out-of-Order Simulator ***
Warmup Instructions: 50000000
Simulation Instructions: 600000000
Number of CPUs: 1
Page size: 4096

CPU 0 Tage branch predictor
Off-chip DRAM Size: 4 GiB Channels: 1 Width: 64-bit Data Race: 3200 MT/s
Heartbeat CPU 0 instructions: 10000001 cycles: 2565786 heartbeat IPC: 3.897 cumulative IPC: 3.897 (Simulation time: 00 hr 01 min 05 sec)
Heartbeat CPU 0 instructions: 20000001 cycles: 5065786 heartbeat IPC: 4 cumulative IPC: 3.948 (Simulation time: 00 hr 02 min 05 sec)
Heartbeat CPU 0 instructions: 30000000 cycles: 7570436 heartbeat IPC: 3.993 cumulative IPC: 3.963 (Simulation time: 00 hr 03 min 07 sec)
Heartbeat CPU 0 instructions: 40000001 cycles: 10115307 heartbeat IPC: 3.929 cumulative IPC: 3.954 (Simulation time: 00 hr 04 min 11 sec)
Heartbeat CPU 0 instructions: 50000004 cycles: 12660174 heartbeat IPC: 3.929 cumulative IPC: 3.949 (Simulation time: 00 hr 05 min 10 sec)
Warmup finished CPU 0 instructions: 50000004 cycles: 12660175 cumulative IPC: 3.949 (Simulation time: 00 hr 05 min 10 sec)
Warmup complete CPU 0 instructions: 50000004 cycles: 12660175 cumulative IPC: 3.949 (Simulation time: 00 hr 05 min 10 sec)
Heartbeat CPU 0 instructions: 60000002 cycles: 15220816 heartbeat IPC: 3.905 cumulative IPC: 3.905 (Simulation time: 00 hr 06 min 23 sec)
Heartbeat CPU 0 instructions: 70000001 cycles: 17780633 heartbeat IPC: 3.907 cumulative IPC: 3.906 (Simulation time: 00 hr 07 min 35 sec)
Heartbeat CPU 0 instructions: 80000001 cycles: 20339492 heartbeat IPC: 3.908 cumulative IPC: 3.907 (Simulation time: 00 hr 08 min 44 sec)
Heartbeat CPU 0 instructions: 90000000 cycles: 22903225 heartbeat IPC: 3.901 cumulative IPC: 3.905 (Simulation time: 00 hr 09 min 51 sec)
Heartbeat CPU 0 instructions: 100000004 cycles: 25464217 heartbeat IPC: 3.905 cumulative IPC: 3.905 (Simulation time: 00 hr 11 min 04 sec)
Heartbeat CPU 0 instructions: 110000004 cycles: 28028760 heartbeat IPC: 3.899 cumulative IPC: 3.904 (Simulation time: 00 hr 12 min 14 sec)
Heartbeat CPU 0 instructions: 120000003 cycles: 30585679 heartbeat IPC: 3.911 cumulative IPC: 3.905 (Simulation time: 00 hr 13 min 20 sec)
Heartbeat CPU 0 instructions: 130000002 cycles: 33146915 heartbeat IPC: 3.904 cumulative IPC: 3.905 (Simulation time: 00 hr 14 min 38 sec)
Heartbeat CPU 0 instructions: 140000002 cycles: 35709177 heartbeat IPC: 3.903 cumulative IPC: 3.905 (Simulation time: 00 hr 15 min 53 sec)
Heartbeat CPU 0 instructions: 150000001 cycles: 38270031 heartbeat IPC: 3.905 cumulative IPC: 3.905 (Simulation time: 00 hr 17 min 06 sec)
Heartbeat CPU 0 instructions: 160000001 cycles: 40832796 heartbeat IPC: 3.902 cumulative IPC: 3.904 (Simulation time: 00 hr 18 min 20 sec)
Heartbeat CPU 0 instructions: 170000000 cycles: 43394013 heartbeat IPC: 3.904 cumulative IPC: 3.904 (Simulation time: 00 hr 19 min 30 sec)
Heartbeat CPU 0 instructions: 180000002 cycles: 45952451 heartbeat IPC: 3.909 cumulative IPC: 3.905 (Simulation time: 00 hr 20 min 39 sec)
Heartbeat CPU 0 instructions: 190000004 cycles: 48513607 heartbeat IPC: 3.904 cumulative IPC: 3.905 (Simulation time: 00 hr 21 min 46 sec)
Heartbeat CPU 0 instructions: 200000003 cycles: 51072414 heartbeat IPC: 3.908 cumulative IPC: 3.905 (Simulation time: 00 hr 22 min 53 sec)
Heartbeat CPU 0 instructions: 210000002 cycles: 53635869 heartbeat IPC: 3.901 cumulative IPC: 3.905 (Simulation time: 00 hr 23 min 59 sec)
Heartbeat CPU 0 instructions: 220000002 cycles: 56194409 heartbeat IPC: 3.908 cumulative IPC: 3.905 (Simulation time: 00 hr 25 min 06 sec)
Heartbeat CPU 0 instructions: 230000001 cycles: 58753583 heartbeat IPC: 3.908 cumulative IPC: 3.905 (Simulation time: 00 hr 26 min 13 sec)
Heartbeat CPU 0 instructions: 240000001 cycles: 61311949 heartbeat IPC: 3.909 cumulative IPC: 3.905 (Simulation time: 00 hr 27 min 19 sec)
Heartbeat CPU 0 instructions: 250000000 cycles: 63874199 heartbeat IPC: 3.903 cumulative IPC: 3.905 (Simulation time: 00 hr 28 min 27 sec)
Heartbeat CPU 0 instructions: 260000004 cycles: 66438407 heartbeat IPC: 3.9 cumulative IPC: 3.905 (Simulation time: 00 hr 29 min 39 sec)
Heartbeat CPU 0 instructions: 270000004 cycles: 68997672 heartbeat IPC: 3.907 cumulative IPC: 3.905 (Simulation time: 00 hr 30 min 49 sec)
Heartbeat CPU 0 instructions: 280000003 cycles: 71557145 heartbeat IPC: 3.907 cumulative IPC: 3.905 (Simulation time: 00 hr 31 min 55 sec)
Heartbeat CPU 0 instructions: 290000000 cycles: 74119982 heartbeat IPC: 3.902 cumulative IPC: 3.905 (Simulation time: 00 hr 32 min 47 sec)
Heartbeat CPU 0 instructions: 300000002 cycles: 76678391 heartbeat IPC: 3.909 cumulative IPC: 3.905 (Simulation time: 00 hr 33 min 40 sec)
Heartbeat CPU 0 instructions: 310000001 cycles: 79237778 heartbeat IPC: 3.907 cumulative IPC: 3.905 (Simulation time: 00 hr 35 min 35 sec)
Heartbeat CPU 0 instructions: 320000001 cycles: 81795880 heartbeat IPC: 3.909 cumulative IPC: 3.905 (Simulation time: 00 hr 37 min 15 sec)
Heartbeat CPU 0 instructions: 330000000 cycles: 84353340 heartbeat IPC: 3.91 cumulative IPC: 3.906 (Simulation time: 00 hr 38 min 04 sec)
Heartbeat CPU 0 instructions: 340000004 cycles: 86913074 heartbeat IPC: 3.907 cumulative IPC: 3.906 (Simulation time: 00 hr 38 min 55 sec)
Heartbeat CPU 0 instructions: 350000004 cycles: 89471244 heartbeat IPC: 3.909 cumulative IPC: 3.906 (Simulation time: 00 hr 39 min 47 sec)
Heartbeat CPU 0 instructions: 360000003 cycles: 92031806 heartbeat IPC: 3.905 cumulative IPC: 3.906 (Simulation time: 00 hr 40 min 38 sec)
Heartbeat CPU 0 instructions: 370000002 cycles: 94594184 heartbeat IPC: 3.903 cumulative IPC: 3.906 (Simulation time: 00 hr 41 min 31 sec)
Heartbeat CPU 0 instructions: 380000002 cycles: 97156622 heartbeat IPC: 3.903 cumulative IPC: 3.905 (Simulation time: 00 hr 42 min 22 sec)
Heartbeat CPU 0 instructions: 390000001 cycles: 99717316 heartbeat IPC: 3.905 cumulative IPC: 3.905 (Simulation time: 00 hr 43 min 11 sec)
Heartbeat CPU 0 instructions: 400000001 cycles: 102277252 heartbeat IPC: 3.906 cumulative IPC: 3.906 (Simulation time: 00 hr 44 min 00 sec)
Heartbeat CPU 0 instructions: 410000000 cycles: 104841408 heartbeat IPC: 3.9 cumulative IPC: 3.905 (Simulation time: 00 hr 44 min 49 sec)
Heartbeat CPU 0 instructions: 420000004 cycles: 107401540 heartbeat IPC: 3.906 cumulative IPC: 3.905 (Simulation time: 00 hr 45 min 37 sec)
Heartbeat CPU 0 instructions: 430000002 cycles: 109964271 heartbeat IPC: 3.902 cumulative IPC: 3.905 (Simulation time: 00 hr 46 min 24 sec)
Heartbeat CPU 0 instructions: 440000003 cycles: 112528113 heartbeat IPC: 3.9 cumulative IPC: 3.905 (Simulation time: 00 hr 47 min 13 sec)
Heartbeat CPU 0 instructions: 450000002 cycles: 115088949 heartbeat IPC: 3.905 cumulative IPC: 3.905 (Simulation time: 00 hr 48 min 00 sec)
Heartbeat CPU 0 instructions: 460000002 cycles: 117649604 heartbeat IPC: 3.905 cumulative IPC: 3.905 (Simulation time: 00 hr 48 min 49 sec)
Heartbeat CPU 0 instructions: 470000001 cycles: 120211075 heartbeat IPC: 3.904 cumulative IPC: 3.905 (Simulation time: 00 hr 49 min 40 sec)
Heartbeat CPU 0 instructions: 480000001 cycles: 122775714 heartbeat IPC: 3.899 cumulative IPC: 3.905 (Simulation time: 00 hr 50 min 31 sec)
Heartbeat CPU 0 instructions: 490000000 cycles: 125338307 heartbeat IPC: 3.902 cumulative IPC: 3.905 (Simulation time: 00 hr 51 min 21 sec)
Heartbeat CPU 0 instructions: 500000004 cycles: 127894781 heartbeat IPC: 3.912 cumulative IPC: 3.905 (Simulation time: 00 hr 52 min 13 sec)
Heartbeat CPU 0 instructions: 510000004 cycles: 130456419 heartbeat IPC: 3.904 cumulative IPC: 3.905 (Simulation time: 00 hr 53 min 03 sec)
Heartbeat CPU 0 instructions: 520000003 cycles: 133019208 heartbeat IPC: 3.902 cumulative IPC: 3.905 (Simulation time: 00 hr 53 min 57 sec)
Heartbeat CPU 0 instructions: 530000002 cycles: 135581600 heartbeat IPC: 3.903 cumulative IPC: 3.905 (Simulation time: 00 hr 54 min 48 sec)
Heartbeat CPU 0 instructions: 540000002 cycles: 138141738 heartbeat IPC: 3.906 cumulative IPC: 3.905 (Simulation time: 00 hr 55 min 43 sec)
Heartbeat CPU 0 instructions: 550000001 cycles: 140704061 heartbeat IPC: 3.903 cumulative IPC: 3.905 (Simulation time: 00 hr 56 min 33 sec)
Heartbeat CPU 0 instructions: 560000001 cycles: 143265805 heartbeat IPC: 3.904 cumulative IPC: 3.905 (Simulation time: 00 hr 57 min 27 sec)
Heartbeat CPU 0 instructions: 570000000 cycles: 145829837 heartbeat IPC: 3.9 cumulative IPC: 3.905 (Simulation time: 00 hr 58 min 19 sec)
Heartbeat CPU 0 instructions: 580000004 cycles: 148388841 heartbeat IPC: 3.908 cumulative IPC: 3.905 (Simulation time: 00 hr 59 min 09 sec)
Heartbeat CPU 0 instructions: 590000004 cycles: 150951286 heartbeat IPC: 3.903 cumulative IPC: 3.905 (Simulation time: 00 hr 59 min 58 sec)
*** Reached end of trace: (0, "traces/stress_goto.champsimtrace")
Heartbeat CPU 0 instructions: 600000003 cycles: 153511731 heartbeat IPC: 3.906 cumulative IPC: 3.905 (Simulation time: 01 hr 00 min 56 sec)
Heartbeat CPU 0 instructions: 610000001 cycles: 156283374 heartbeat IPC: 3.608 cumulative IPC: 3.899 (Simulation time: 01 hr 01 min 49 sec)
Heartbeat CPU 0 instructions: 620000002 cycles: 158783375 heartbeat IPC: 4 cumulative IPC: 3.901 (Simulation time: 01 hr 02 min 40 sec)
Heartbeat CPU 0 instructions: 630000003 cycles: 161288187 heartbeat IPC: 3.992 cumulative IPC: 3.902 (Simulation time: 01 hr 03 min 28 sec)
Heartbeat CPU 0 instructions: 640000002 cycles: 163842367 heartbeat IPC: 3.915 cumulative IPC: 3.903 (Simulation time: 01 hr 04 min 16 sec)
Heartbeat CPU 0 instructions: 650000001 cycles: 166400478 heartbeat IPC: 3.909 cumulative IPC: 3.903 (Simulation time: 01 hr 05 min 07 sec)
Simulation finished CPU 0 instructions: 600000002 cycles: 153740305 cumulative IPC: 3.903 (Simulation time: 01 hr 05 min 07 sec)
Simulation complete CPU 0 instructions: 600000002 cycles: 153740305 cumulative IPC: 3.903 (Simulation time: 01 hr 05 min 07 sec)

ChampSim completed all CPUs

=== Simulation ===
CPU 0 runs traces/stress_goto.champsimtrace
Region of Interest Statistics

CPU 0 cumulative IPC: 3.903 instructions: 600000002 cycles: 153740305
CPU 0 Branch Prediction Accuracy: 100% MPKI: 0.01092 Average ROB Occupancy at Mispredict: 155.5
Branch type MPKI
BRANCH_DIRECT_JUMP: 8.33e-05
BRANCH_INDIRECT: 0.000297
BRANCH_CONDITIONAL: 0.0105
BRANCH_DIRECT_CALL: 1.67e-06
BRANCH_INDIRECT_CALL: 4.67e-05
BRANCH_RETURN: 2.17e-05

LLC TOTAL        ACCESS:    3262235 HIT:    3259606 MISS:       2629
LLC LOAD         ACCESS:    3186735 HIT:    3184250 MISS:       2485
LLC RFO          ACCESS:      34341 HIT:      34262 MISS:         79
LLC PREFETCH     ACCESS:       6459 HIT:       6428 MISS:         31
LLC WRITE        ACCESS:      34700 HIT:      34666 MISS:         34
LLC TRANSLATION  ACCESS:          0 HIT:          0 MISS:          0
LLC PREFETCH REQUESTED:       6459 ISSUED:       6459 USEFUL:          6 USELESS:          4
LLC AVERAGE MISS LATENCY: 427.4 cycles
cpu0_DTLB TOTAL        ACCESS:  127104743 HIT:  122211199 MISS:    4893544
cpu0_DTLB LOAD         ACCESS:  127104743 HIT:  122211199 MISS:    4893544
cpu0_DTLB RFO          ACCESS:          0 HIT:          0 MISS:          0
cpu0_DTLB PREFETCH     ACCESS:          0 HIT:          0 MISS:          0
cpu0_DTLB WRITE        ACCESS:          0 HIT:          0 MISS:          0
cpu0_DTLB TRANSLATION  ACCESS:          0 HIT:          0 MISS:          0
cpu0_DTLB PREFETCH REQUESTED:          0 ISSUED:          0 USEFUL:          0 USELESS:          0
cpu0_DTLB AVERAGE MISS LATENCY: 7.995 cycles
cpu0_ITLB TOTAL        ACCESS:       4784 HIT:       4539 MISS:        245
cpu0_ITLB LOAD         ACCESS:       4784 HIT:       4539 MISS:        245
cpu0_ITLB RFO          ACCESS:          0 HIT:          0 MISS:          0
cpu0_ITLB PREFETCH     ACCESS:          0 HIT:          0 MISS:          0
cpu0_ITLB WRITE        ACCESS:          0 HIT:          0 MISS:          0
cpu0_ITLB TRANSLATION  ACCESS:          0 HIT:          0 MISS:          0
cpu0_ITLB PREFETCH REQUESTED:          0 ISSUED:          0 USEFUL:          0 USELESS:          0
cpu0_ITLB AVERAGE MISS LATENCY: 2.351 cycles
cpu0_L1D TOTAL        ACCESS:  162424240 HIT:  155960090 MISS:    6464150
cpu0_L1D LOAD         ACCESS:   56119687 HIT:   50013725 MISS:    6105962
cpu0_L1D RFO          ACCESS:          0 HIT:          0 MISS:          0
cpu0_L1D PREFETCH     ACCESS:          0 HIT:          0 MISS:          0
cpu0_L1D WRITE        ACCESS:  106304553 HIT:  105946365 MISS:     358188
cpu0_L1D TRANSLATION  ACCESS:          0 HIT:          0 MISS:          0
cpu0_L1D PREFETCH REQUESTED:          0 ISSUED:          0 USEFUL:          0 USELESS:          0
cpu0_L1D AVERAGE MISS LATENCY: 19.95 cycles
cpu0_L1I TOTAL        ACCESS:       5520 HIT:       3167 MISS:       2353
cpu0_L1I LOAD         ACCESS:       5520 HIT:       3167 MISS:       2353
cpu0_L1I RFO          ACCESS:          0 HIT:          0 MISS:          0
cpu0_L1I PREFETCH     ACCESS:          0 HIT:          0 MISS:          0
cpu0_L1I WRITE        ACCESS:          0 HIT:          0 MISS:          0
cpu0_L1I TRANSLATION  ACCESS:          0 HIT:          0 MISS:          0
cpu0_L1I PREFETCH REQUESTED:          0 ISSUED:          0 USEFUL:          0 USELESS:          0
cpu0_L1I AVERAGE MISS LATENCY: 22.25 cycles
cpu0_L2C TOTAL        ACCESS:    6190530 HIT:    2969433 MISS:    3221097
cpu0_L2C LOAD         ACCESS:    6073443 HIT:    2886708 MISS:    3186735
cpu0_L2C RFO          ACCESS:      57249 HIT:      22908 MISS:      34341
cpu0_L2C PREFETCH     ACCESS:          0 HIT:          0 MISS:          0
cpu0_L2C WRITE        ACCESS:      59838 HIT:      59817 MISS:         21
cpu0_L2C TRANSLATION  ACCESS:          0 HIT:          0 MISS:          0
cpu0_L2C PREFETCH REQUESTED:          0 ISSUED:          0 USEFUL:          0 USELESS:          0
cpu0_L2C AVERAGE MISS LATENCY: 20.35 cycles
cpu0_STLB TOTAL        ACCESS:    4891214 HIT:    4891214 MISS:          0
cpu0_STLB LOAD         ACCESS:    4891214 HIT:    4891214 MISS:          0
cpu0_STLB RFO          ACCESS:          0 HIT:          0 MISS:          0
cpu0_STLB PREFETCH     ACCESS:          0 HIT:          0 MISS:          0
cpu0_STLB WRITE        ACCESS:          0 HIT:          0 MISS:          0
cpu0_STLB TRANSLATION  ACCESS:          0 HIT:          0 MISS:          0
cpu0_STLB PREFETCH REQUESTED:          0 ISSUED:          0 USEFUL:          0 USELESS:          0
cpu0_STLB AVERAGE MISS LATENCY: -nan cycles

DRAM Statistics

Channel 0 RQ ROW_BUFFER_HIT:        489
  ROW_BUFFER_MISS:       2091
 AVG DBUS CONGESTED CYCLE: 3.881
WQ ROW_BUFFER_HIT: Channel 0 
  ROW_BUFFER_MISS:         19
  FULL:         60
