WARNING: physical memory size is smaller than virtual memory size.

*** ChampSim Multicore Out-of-Order Simulator ***
Warmup Instructions: 50000000
Simulation Instructions: 600000000
Number of CPUs: 1
Page size: 4096

Off-chip DRAM Size: 4 GiB Channels: 1 Width: 64-bit Data Race: 3200 MT/s
Heartbeat CPU 0 instructions: 10000001 cycles: 2565786 heartbeat IPC: 3.897 cumulative IPC: 3.897 (Simulation time: 00 hr 01 min 10 sec)
Heartbeat CPU 0 instructions: 20000001 cycles: 5065786 heartbeat IPC: 4 cumulative IPC: 3.948 (Simulation time: 00 hr 02 min 27 sec)
Heartbeat CPU 0 instructions: 30000000 cycles: 7570436 heartbeat IPC: 3.993 cumulative IPC: 3.963 (Simulation time: 00 hr 03 min 46 sec)
Heartbeat CPU 0 instructions: 40000001 cycles: 10115307 heartbeat IPC: 3.929 cumulative IPC: 3.954 (Simulation time: 00 hr 04 min 59 sec)
Heartbeat CPU 0 instructions: 50000004 cycles: 12660174 heartbeat IPC: 3.929 cumulative IPC: 3.949 (Simulation time: 00 hr 06 min 14 sec)
Warmup finished CPU 0 instructions: 50000004 cycles: 12660175 cumulative IPC: 3.949 (Simulation time: 00 hr 06 min 14 sec)
Warmup complete CPU 0 instructions: 50000004 cycles: 12660175 cumulative IPC: 3.949 (Simulation time: 00 hr 06 min 14 sec)
Heartbeat CPU 0 instructions: 60000002 cycles: 15444478 heartbeat IPC: 3.592 cumulative IPC: 3.592 (Simulation time: 00 hr 07 min 50 sec)
Heartbeat CPU 0 instructions: 70000001 cycles: 18228617 heartbeat IPC: 3.592 cumulative IPC: 3.592 (Simulation time: 00 hr 09 min 32 sec)
Heartbeat CPU 0 instructions: 80000001 cycles: 21012573 heartbeat IPC: 3.592 cumulative IPC: 3.592 (Simulation time: 00 hr 11 min 06 sec)
Heartbeat CPU 0 instructions: 90000000 cycles: 23796652 heartbeat IPC: 3.592 cumulative IPC: 3.592 (Simulation time: 00 hr 12 min 39 sec)
Heartbeat CPU 0 instructions: 100000004 cycles: 26580877 heartbeat IPC: 3.592 cumulative IPC: 3.592 (Simulation time: 00 hr 14 min 08 sec)
Heartbeat CPU 0 instructions: 110000004 cycles: 29365181 heartbeat IPC: 3.592 cumulative IPC: 3.592 (Simulation time: 00 hr 15 min 41 sec)
Heartbeat CPU 0 instructions: 120000003 cycles: 32149530 heartbeat IPC: 3.592 cumulative IPC: 3.592 (Simulation time: 00 hr 16 min 51 sec)
Heartbeat CPU 0 instructions: 130000002 cycles: 34933850 heartbeat IPC: 3.592 cumulative IPC: 3.592 (Simulation time: 00 hr 17 min 50 sec)
Heartbeat CPU 0 instructions: 140000002 cycles: 37718113 heartbeat IPC: 3.592 cumulative IPC: 3.592 (Simulation time: 00 hr 18 min 52 sec)
Heartbeat CPU 0 instructions: 150000001 cycles: 40502243 heartbeat IPC: 3.592 cumulative IPC: 3.592 (Simulation time: 00 hr 19 min 57 sec)
Heartbeat CPU 0 instructions: 160000001 cycles: 43286541 heartbeat IPC: 3.592 cumulative IPC: 3.592 (Simulation time: 00 hr 21 min 03 sec)
Heartbeat CPU 0 instructions: 170000000 cycles: 46070824 heartbeat IPC: 3.592 cumulative IPC: 3.592 (Simulation time: 00 hr 22 min 01 sec)
Heartbeat CPU 0 instructions: 180000002 cycles: 48854987 heartbeat IPC: 3.592 cumulative IPC: 3.592 (Simulation time: 00 hr 22 min 59 sec)
Heartbeat CPU 0 instructions: 190000004 cycles: 51639095 heartbeat IPC: 3.592 cumulative IPC: 3.592 (Simulation time: 00 hr 23 min 57 sec)
Heartbeat CPU 0 instructions: 200000003 cycles: 54423300 heartbeat IPC: 3.592 cumulative IPC: 3.592 (Simulation time: 00 hr 24 min 59 sec)
Heartbeat CPU 0 instructions: 210000002 cycles: 57207454 heartbeat IPC: 3.592 cumulative IPC: 3.592 (Simulation time: 00 hr 26 min 01 sec)
Heartbeat CPU 0 instructions: 220000002 cycles: 59991881 heartbeat IPC: 3.591 cumulative IPC: 3.592 (Simulation time: 00 hr 26 min 59 sec)
Heartbeat CPU 0 instructions: 230000001 cycles: 62776012 heartbeat IPC: 3.592 cumulative IPC: 3.592 (Simulation time: 00 hr 28 min 01 sec)
Heartbeat CPU 0 instructions: 240000001 cycles: 65560243 heartbeat IPC: 3.592 cumulative IPC: 3.592 (Simulation time: 00 hr 29 min 01 sec)
Heartbeat CPU 0 instructions: 250000000 cycles: 68344374 heartbeat IPC: 3.592 cumulative IPC: 3.592 (Simulation time: 00 hr 29 min 59 sec)
Heartbeat CPU 0 instructions: 260000004 cycles: 71128524 heartbeat IPC: 3.592 cumulative IPC: 3.592 (Simulation time: 00 hr 30 min 58 sec)
Heartbeat CPU 0 instructions: 270000004 cycles: 73912866 heartbeat IPC: 3.592 cumulative IPC: 3.592 (Simulation time: 00 hr 31 min 56 sec)
Heartbeat CPU 0 instructions: 280000003 cycles: 76697065 heartbeat IPC: 3.592 cumulative IPC: 3.592 (Simulation time: 00 hr 32 min 55 sec)
Heartbeat CPU 0 instructions: 290000000 cycles: 79481264 heartbeat IPC: 3.592 cumulative IPC: 3.592 (Simulation time: 00 hr 33 min 53 sec)
Heartbeat CPU 0 instructions: 300000002 cycles: 82265534 heartbeat IPC: 3.592 cumulative IPC: 3.592 (Simulation time: 00 hr 34 min 50 sec)
Heartbeat CPU 0 instructions: 310000001 cycles: 85049729 heartbeat IPC: 3.592 cumulative IPC: 3.592 (Simulation time: 00 hr 35 min 47 sec)
Heartbeat CPU 0 instructions: 320000001 cycles: 87833832 heartbeat IPC: 3.592 cumulative IPC: 3.592 (Simulation time: 00 hr 36 min 45 sec)
Heartbeat CPU 0 instructions: 330000000 cycles: 90617925 heartbeat IPC: 3.592 cumulative IPC: 3.592 (Simulation time: 00 hr 37 min 43 sec)
Heartbeat CPU 0 instructions: 340000004 cycles: 93402020 heartbeat IPC: 3.592 cumulative IPC: 3.592 (Simulation time: 00 hr 38 min 44 sec)
Heartbeat CPU 0 instructions: 350000004 cycles: 96186278 heartbeat IPC: 3.592 cumulative IPC: 3.592 (Simulation time: 00 hr 39 min 42 sec)
Heartbeat CPU 0 instructions: 360000003 cycles: 98970304 heartbeat IPC: 3.592 cumulative IPC: 3.592 (Simulation time: 00 hr 40 min 45 sec)
Heartbeat CPU 0 instructions: 370000002 cycles: 101754549 heartbeat IPC: 3.592 cumulative IPC: 3.592 (Simulation time: 00 hr 41 min 47 sec)
Heartbeat CPU 0 instructions: 380000002 cycles: 104538874 heartbeat IPC: 3.592 cumulative IPC: 3.592 (Simulation time: 00 hr 42 min 46 sec)
Heartbeat CPU 0 instructions: 390000001 cycles: 107323086 heartbeat IPC: 3.592 cumulative IPC: 3.592 (Simulation time: 00 hr 43 min 48 sec)
Heartbeat CPU 0 instructions: 400000001 cycles: 110107642 heartbeat IPC: 3.591 cumulative IPC: 3.592 (Simulation time: 00 hr 44 min 49 sec)
Heartbeat CPU 0 instructions: 410000000 cycles: 112891737 heartbeat IPC: 3.592 cumulative IPC: 3.592 (Simulation time: 00 hr 45 min 47 sec)
Heartbeat CPU 0 instructions: 420000004 cycles: 115675861 heartbeat IPC: 3.592 cumulative IPC: 3.592 (Simulation time: 00 hr 46 min 45 sec)
Heartbeat CPU 0 instructions: 430000002 cycles: 118460018 heartbeat IPC: 3.592 cumulative IPC: 3.592 (Simulation time: 00 hr 47 min 50 sec)
Heartbeat CPU 0 instructions: 440000003 cycles: 121244182 heartbeat IPC: 3.592 cumulative IPC: 3.592 (Simulation time: 00 hr 48 min 52 sec)
Heartbeat CPU 0 instructions: 450000002 cycles: 124028319 heartbeat IPC: 3.592 cumulative IPC: 3.592 (Simulation time: 00 hr 49 min 51 sec)
Heartbeat CPU 0 instructions: 460000002 cycles: 126812769 heartbeat IPC: 3.591 cumulative IPC: 3.592 (Simulation time: 00 hr 50 min 52 sec)
Heartbeat CPU 0 instructions: 470000001 cycles: 129596905 heartbeat IPC: 3.592 cumulative IPC: 3.592 (Simulation time: 00 hr 51 min 51 sec)
Heartbeat CPU 0 instructions: 480000001 cycles: 132381027 heartbeat IPC: 3.592 cumulative IPC: 3.592 (Simulation time: 00 hr 52 min 49 sec)
Heartbeat CPU 0 instructions: 490000000 cycles: 135165173 heartbeat IPC: 3.592 cumulative IPC: 3.592 (Simulation time: 00 hr 53 min 48 sec)
Heartbeat CPU 0 instructions: 500000004 cycles: 137949296 heartbeat IPC: 3.592 cumulative IPC: 3.592 (Simulation time: 00 hr 55 min 00 sec)
Heartbeat CPU 0 instructions: 510000004 cycles: 140733519 heartbeat IPC: 3.592 cumulative IPC: 3.592 (Simulation time: 00 hr 56 min 07 sec)
Heartbeat CPU 0 instructions: 520000003 cycles: 143517679 heartbeat IPC: 3.592 cumulative IPC: 3.592 (Simulation time: 00 hr 57 min 15 sec)
Heartbeat CPU 0 instructions: 530000002 cycles: 146301918 heartbeat IPC: 3.592 cumulative IPC: 3.592 (Simulation time: 00 hr 58 min 24 sec)
Heartbeat CPU 0 instructions: 540000002 cycles: 149086026 heartbeat IPC: 3.592 cumulative IPC: 3.592 (Simulation time: 00 hr 59 min 27 sec)
Heartbeat CPU 0 instructions: 550000001 cycles: 151870352 heartbeat IPC: 3.592 cumulative IPC: 3.592 (Simulation time: 01 hr 00 min 29 sec)
Heartbeat CPU 0 instructions: 560000001 cycles: 154654550 heartbeat IPC: 3.592 cumulative IPC: 3.592 (Simulation time: 01 hr 01 min 30 sec)
Heartbeat CPU 0 instructions: 570000000 cycles: 157438646 heartbeat IPC: 3.592 cumulative IPC: 3.592 (Simulation time: 01 hr 02 min 32 sec)
Heartbeat CPU 0 instructions: 580000004 cycles: 160222812 heartbeat IPC: 3.592 cumulative IPC: 3.592 (Simulation time: 01 hr 03 min 39 sec)
Heartbeat CPU 0 instructions: 590000004 cycles: 163007260 heartbeat IPC: 3.591 cumulative IPC: 3.592 (Simulation time: 01 hr 04 min 45 sec)
*** Reached end of trace: (0, "traces/stress_goto.champsimtrace")
Heartbeat CPU 0 instructions: 600000003 cycles: 165791361 heartbeat IPC: 3.592 cumulative IPC: 3.592 (Simulation time: 01 hr 05 min 46 sec)
Heartbeat CPU 0 instructions: 610000001 cycles: 168784207 heartbeat IPC: 3.341 cumulative IPC: 3.587 (Simulation time: 01 hr 06 min 50 sec)
Heartbeat CPU 0 instructions: 620000002 cycles: 171483963 heartbeat IPC: 3.704 cumulative IPC: 3.589 (Simulation time: 01 hr 07 min 52 sec)
Heartbeat CPU 0 instructions: 630000003 cycles: 174192845 heartbeat IPC: 3.692 cumulative IPC: 3.591 (Simulation time: 01 hr 08 min 58 sec)
Heartbeat CPU 0 instructions: 640000002 cycles: 176976994 heartbeat IPC: 3.592 cumulative IPC: 3.591 (Simulation time: 01 hr 10 min 05 sec)
Heartbeat CPU 0 instructions: 650000001 cycles: 179761292 heartbeat IPC: 3.592 cumulative IPC: 3.591 (Simulation time: 01 hr 11 min 08 sec)
Simulation finished CPU 0 instructions: 600000002 cycles: 167101119 cumulative IPC: 3.591 (Simulation time: 01 hr 11 min 08 sec)
Simulation complete CPU 0 instructions: 600000002 cycles: 167101119 cumulative IPC: 3.591 (Simulation time: 01 hr 11 min 08 sec)

ChampSim completed all CPUs

=== Simulation ===
CPU 0 runs traces/stress_goto.champsimtrace
Region of Interest Statistics

CPU 0 cumulative IPC: 3.591 instructions: 600000002 cycles: 167101119
CPU 0 Branch Prediction Accuracy: 99.34% MPKI: 1.442 Average ROB Occupancy at Mispredict: 120.2
Branch type MPKI
BRANCH_DIRECT_JUMP: 8.33e-05
BRANCH_INDIRECT: 0.000297
BRANCH_CONDITIONAL: 1.44
BRANCH_DIRECT_CALL: 1.67e-06
BRANCH_INDIRECT_CALL: 4.67e-05
BRANCH_RETURN: 2.17e-05

LLC TOTAL        ACCESS:    3261573 HIT:    3261448 MISS:        125
LLC LOAD         ACCESS:    3185972 HIT:    3185884 MISS:         88
LLC RFO          ACCESS:      34341 HIT:      34317 MISS:         24
LLC PREFETCH     ACCESS:       6434 HIT:       6426 MISS:          8
LLC WRITE        ACCESS:      34826 HIT:      34821 MISS:          5
LLC TRANSLATION  ACCESS:          0 HIT:          0 MISS:          0
LLC PREFETCH REQUESTED:       6434 ISSUED:       6434 USEFUL:          1 USELESS:          3
LLC AVERAGE MISS LATENCY: 396 cycles
cpu0_DTLB TOTAL        ACCESS:  128955187 HIT:  124061751 MISS:    4893436
cpu0_DTLB LOAD         ACCESS:  128955187 HIT:  124061751 MISS:    4893436
cpu0_DTLB RFO          ACCESS:          0 HIT:          0 MISS:          0
cpu0_DTLB PREFETCH     ACCESS:          0 HIT:          0 MISS:          0
cpu0_DTLB WRITE        ACCESS:          0 HIT:          0 MISS:          0
cpu0_DTLB TRANSLATION  ACCESS:          0 HIT:          0 MISS:          0
cpu0_DTLB PREFETCH REQUESTED:          0 ISSUED:          0 USEFUL:          0 USELESS:          0
cpu0_DTLB AVERAGE MISS LATENCY: 7.995 cycles
cpu0_ITLB TOTAL        ACCESS:       4669 HIT:       4458 MISS:        211
cpu0_ITLB LOAD         ACCESS:       4669 HIT:       4458 MISS:        211
cpu0_ITLB RFO          ACCESS:          0 HIT:          0 MISS:          0
cpu0_ITLB PREFETCH     ACCESS:          0 HIT:          0 MISS:          0
cpu0_ITLB WRITE        ACCESS:          0 HIT:          0 MISS:          0
cpu0_ITLB TRANSLATION  ACCESS:          0 HIT:          0 MISS:          0
cpu0_ITLB PREFETCH REQUESTED:          0 ISSUED:          0 USEFUL:          0 USELESS:          0
cpu0_ITLB AVERAGE MISS LATENCY: 3.024 cycles
cpu0_L1D TOTAL        ACCESS:  164466038 HIT:  158060692 MISS:    6405346
cpu0_L1D LOAD         ACCESS:   58161424 HIT:   52056635 MISS:    6104789
cpu0_L1D RFO          ACCESS:          0 HIT:          0 MISS:          0
cpu0_L1D PREFETCH     ACCESS:          0 HIT:          0 MISS:          0
cpu0_L1D WRITE        ACCESS:  106304614 HIT:  106004057 MISS:     300557
cpu0_L1D TRANSLATION  ACCESS:          0 HIT:          0 MISS:          0
cpu0_L1D PREFETCH REQUESTED:          0 ISSUED:          0 USEFUL:          0 USELESS:          0
cpu0_L1D AVERAGE MISS LATENCY: 19.95 cycles
cpu0_L1I TOTAL        ACCESS:       5351 HIT:       3224 MISS:       2127
cpu0_L1I LOAD         ACCESS:       5351 HIT:       3224 MISS:       2127
cpu0_L1I RFO          ACCESS:          0 HIT:          0 MISS:          0
cpu0_L1I PREFETCH     ACCESS:          0 HIT:          0 MISS:          0
cpu0_L1I WRITE        ACCESS:          0 HIT:          0 MISS:          0
cpu0_L1I TRANSLATION  ACCESS:          0 HIT:          0 MISS:          0
cpu0_L1I PREFETCH REQUESTED:          0 ISSUED:          0 USEFUL:          0 USELESS:          0
cpu0_L1I AVERAGE MISS LATENCY: 29.52 cycles
cpu0_L2C TOTAL        ACCESS:    6147246 HIT:    2926787 MISS:    3220459
cpu0_L2C LOAD         ACCESS:    6073463 HIT:    2887491 MISS:    3185972
cpu0_L2C RFO          ACCESS:      36663 HIT:       2322 MISS:      34341
cpu0_L2C PREFETCH     ACCESS:          0 HIT:          0 MISS:          0
cpu0_L2C WRITE        ACCESS:      37120 HIT:      36974 MISS:        146
cpu0_L2C TRANSLATION  ACCESS:          0 HIT:          0 MISS:          0
cpu0_L2C PREFETCH REQUESTED:          0 ISSUED:          0 USEFUL:          0 USELESS:          0
cpu0_L2C AVERAGE MISS LATENCY: 20.01 cycles
cpu0_STLB TOTAL        ACCESS:    4891214 HIT:    4891214 MISS:          0
cpu0_STLB LOAD         ACCESS:    4891214 HIT:    4891214 MISS:          0
cpu0_STLB RFO          ACCESS:          0 HIT:          0 MISS:          0
cpu0_STLB PREFETCH     ACCESS:          0 HIT:          0 MISS:          0
cpu0_STLB WRITE        ACCESS:          0 HIT:          0 MISS:          0
cpu0_STLB TRANSLATION  ACCESS:          0 HIT:          0 MISS:          0
cpu0_STLB PREFETCH REQUESTED:          0 ISSUED:          0 USEFUL:          0 USELESS:          0
cpu0_STLB AVERAGE MISS LATENCY: -nan cycles

DRAM Statistics

Channel 0 RQ ROW_BUFFER_HIT:         33
  ROW_BUFFER_MISS:         86
 AVG DBUS CONGESTED CYCLE: 3.893
WQ ROW_BUFFER_HIT: Channel 0 
  ROW_BUFFER_MISS:          8
  FULL:         13
