WARNING: physical memory size is smaller than virtual memory size.

*** ChampSim Multicore Out-of-Order Simulator ***
Warmup Instructions: 50000000
Simulation Instructions: 600000000
Number of CPUs: 1
Page size: 4096

CPU 0 Tage branch predictor
Off-chip DRAM Size: 4 GiB Channels: 1 Width: 64-bit Data Race: 3200 MT/s
Heartbeat CPU 0 instructions: 10000001 cycles: 2565786 heartbeat IPC: 3.897 cumulative IPC: 3.897 (Simulation time: 00 hr 00 min 39 sec)
Heartbeat CPU 0 instructions: 20000001 cycles: 5065786 heartbeat IPC: 4 cumulative IPC: 3.948 (Simulation time: 00 hr 01 min 30 sec)
Heartbeat CPU 0 instructions: 30000000 cycles: 7570436 heartbeat IPC: 3.993 cumulative IPC: 3.963 (Simulation time: 00 hr 02 min 24 sec)
Heartbeat CPU 0 instructions: 40000001 cycles: 10115307 heartbeat IPC: 3.929 cumulative IPC: 3.954 (Simulation time: 00 hr 03 min 16 sec)
Heartbeat CPU 0 instructions: 50000004 cycles: 12660174 heartbeat IPC: 3.929 cumulative IPC: 3.949 (Simulation time: 00 hr 04 min 13 sec)
Warmup finished CPU 0 instructions: 50000004 cycles: 12660175 cumulative IPC: 3.949 (Simulation time: 00 hr 04 min 13 sec)
Warmup complete CPU 0 instructions: 50000004 cycles: 12660175 cumulative IPC: 3.949 (Simulation time: 00 hr 04 min 13 sec)
Heartbeat CPU 0 instructions: 60000002 cycles: 15205085 heartbeat IPC: 3.929 cumulative IPC: 3.929 (Simulation time: 00 hr 05 min 17 sec)
Heartbeat CPU 0 instructions: 70000001 cycles: 17749949 heartbeat IPC: 3.929 cumulative IPC: 3.929 (Simulation time: 00 hr 06 min 21 sec)
Heartbeat CPU 0 instructions: 80000001 cycles: 20294813 heartbeat IPC: 3.929 cumulative IPC: 3.929 (Simulation time: 00 hr 07 min 27 sec)
Heartbeat CPU 0 instructions: 90000000 cycles: 22839677 heartbeat IPC: 3.929 cumulative IPC: 3.929 (Simulation time: 00 hr 08 min 42 sec)
Heartbeat CPU 0 instructions: 100000004 cycles: 25384542 heartbeat IPC: 3.929 cumulative IPC: 3.929 (Simulation time: 00 hr 09 min 54 sec)
Heartbeat CPU 0 instructions: 110000004 cycles: 27929409 heartbeat IPC: 3.929 cumulative IPC: 3.929 (Simulation time: 00 hr 11 min 07 sec)
Heartbeat CPU 0 instructions: 120000003 cycles: 30474269 heartbeat IPC: 3.929 cumulative IPC: 3.929 (Simulation time: 00 hr 12 min 19 sec)
Heartbeat CPU 0 instructions: 130000002 cycles: 33019154 heartbeat IPC: 3.929 cumulative IPC: 3.929 (Simulation time: 00 hr 13 min 29 sec)
Heartbeat CPU 0 instructions: 140000002 cycles: 35564017 heartbeat IPC: 3.929 cumulative IPC: 3.929 (Simulation time: 00 hr 14 min 40 sec)
Heartbeat CPU 0 instructions: 150000001 cycles: 38108876 heartbeat IPC: 3.929 cumulative IPC: 3.929 (Simulation time: 00 hr 15 min 51 sec)
Heartbeat CPU 0 instructions: 160000001 cycles: 40653756 heartbeat IPC: 3.929 cumulative IPC: 3.929 (Simulation time: 00 hr 17 min 03 sec)
Heartbeat CPU 0 instructions: 170000000 cycles: 43198623 heartbeat IPC: 3.929 cumulative IPC: 3.929 (Simulation time: 00 hr 18 min 15 sec)
Heartbeat CPU 0 instructions: 180000002 cycles: 45743468 heartbeat IPC: 3.93 cumulative IPC: 3.929 (Simulation time: 00 hr 19 min 28 sec)
Heartbeat CPU 0 instructions: 190000004 cycles: 48288351 heartbeat IPC: 3.929 cumulative IPC: 3.929 (Simulation time: 00 hr 20 min 42 sec)
Heartbeat CPU 0 instructions: 200000003 cycles: 50833216 heartbeat IPC: 3.929 cumulative IPC: 3.929 (Simulation time: 00 hr 21 min 55 sec)
Heartbeat CPU 0 instructions: 210000002 cycles: 53378075 heartbeat IPC: 3.929 cumulative IPC: 3.929 (Simulation time: 00 hr 23 min 08 sec)
Heartbeat CPU 0 instructions: 220000002 cycles: 55922942 heartbeat IPC: 3.929 cumulative IPC: 3.929 (Simulation time: 00 hr 24 min 38 sec)
Heartbeat CPU 0 instructions: 230000001 cycles: 58467824 heartbeat IPC: 3.929 cumulative IPC: 3.929 (Simulation time: 00 hr 25 min 33 sec)
Heartbeat CPU 0 instructions: 240000001 cycles: 61012693 heartbeat IPC: 3.929 cumulative IPC: 3.929 (Simulation time: 00 hr 26 min 17 sec)
Heartbeat CPU 0 instructions: 250000000 cycles: 63557560 heartbeat IPC: 3.929 cumulative IPC: 3.929 (Simulation time: 00 hr 27 min 12 sec)
Heartbeat CPU 0 instructions: 260000004 cycles: 66102421 heartbeat IPC: 3.929 cumulative IPC: 3.929 (Simulation time: 00 hr 28 min 27 sec)
Heartbeat CPU 0 instructions: 270000004 cycles: 68647283 heartbeat IPC: 3.929 cumulative IPC: 3.929 (Simulation time: 00 hr 29 min 54 sec)
Heartbeat CPU 0 instructions: 280000003 cycles: 71192143 heartbeat IPC: 3.929 cumulative IPC: 3.929 (Simulation time: 00 hr 30 min 48 sec)
Heartbeat CPU 0 instructions: 290000000 cycles: 73737003 heartbeat IPC: 3.929 cumulative IPC: 3.929 (Simulation time: 00 hr 31 min 46 sec)
Heartbeat CPU 0 instructions: 300000002 cycles: 76281895 heartbeat IPC: 3.929 cumulative IPC: 3.929 (Simulation time: 00 hr 32 min 52 sec)
Heartbeat CPU 0 instructions: 310000001 cycles: 78826750 heartbeat IPC: 3.929 cumulative IPC: 3.929 (Simulation time: 00 hr 34 min 12 sec)
Heartbeat CPU 0 instructions: 320000001 cycles: 81371629 heartbeat IPC: 3.929 cumulative IPC: 3.929 (Simulation time: 00 hr 35 min 34 sec)
Heartbeat CPU 0 instructions: 330000000 cycles: 83916481 heartbeat IPC: 3.93 cumulative IPC: 3.929 (Simulation time: 00 hr 36 min 54 sec)
Heartbeat CPU 0 instructions: 340000004 cycles: 86461358 heartbeat IPC: 3.929 cumulative IPC: 3.929 (Simulation time: 00 hr 38 min 14 sec)
Heartbeat CPU 0 instructions: 350000004 cycles: 89006225 heartbeat IPC: 3.929 cumulative IPC: 3.929 (Simulation time: 00 hr 39 min 36 sec)
Heartbeat CPU 0 instructions: 360000003 cycles: 91551080 heartbeat IPC: 3.929 cumulative IPC: 3.929 (Simulation time: 00 hr 40 min 58 sec)
Heartbeat CPU 0 instructions: 370000002 cycles: 94095970 heartbeat IPC: 3.929 cumulative IPC: 3.929 (Simulation time: 00 hr 42 min 20 sec)
Heartbeat CPU 0 instructions: 380000002 cycles: 96640818 heartbeat IPC: 3.93 cumulative IPC: 3.929 (Simulation time: 00 hr 43 min 42 sec)
Heartbeat CPU 0 instructions: 390000001 cycles: 99185697 heartbeat IPC: 3.929 cumulative IPC: 3.929 (Simulation time: 00 hr 45 min 05 sec)
Heartbeat CPU 0 instructions: 400000001 cycles: 101730569 heartbeat IPC: 3.929 cumulative IPC: 3.929 (Simulation time: 00 hr 46 min 27 sec)
Heartbeat CPU 0 instructions: 410000000 cycles: 104275413 heartbeat IPC: 3.93 cumulative IPC: 3.929 (Simulation time: 00 hr 47 min 50 sec)
Heartbeat CPU 0 instructions: 420000004 cycles: 106820305 heartbeat IPC: 3.929 cumulative IPC: 3.929 (Simulation time: 00 hr 49 min 13 sec)
Heartbeat CPU 0 instructions: 430000002 cycles: 109365162 heartbeat IPC: 3.929 cumulative IPC: 3.929 (Simulation time: 00 hr 50 min 36 sec)
Heartbeat CPU 0 instructions: 440000003 cycles: 111910032 heartbeat IPC: 3.929 cumulative IPC: 3.929 (Simulation time: 00 hr 51 min 58 sec)
Heartbeat CPU 0 instructions: 450000002 cycles: 114454907 heartbeat IPC: 3.929 cumulative IPC: 3.929 (Simulation time: 00 hr 53 min 21 sec)
Heartbeat CPU 0 instructions: 460000002 cycles: 116999764 heartbeat IPC: 3.929 cumulative IPC: 3.929 (Simulation time: 00 hr 54 min 31 sec)
Heartbeat CPU 0 instructions: 470000001 cycles: 119544639 heartbeat IPC: 3.929 cumulative IPC: 3.929 (Simulation time: 00 hr 57 min 16 sec)
Heartbeat CPU 0 instructions: 480000001 cycles: 122089503 heartbeat IPC: 3.929 cumulative IPC: 3.929 (Simulation time: 01 hr 00 min 12 sec)
Heartbeat CPU 0 instructions: 490000000 cycles: 124634371 heartbeat IPC: 3.929 cumulative IPC: 3.929 (Simulation time: 01 hr 02 min 37 sec)
Heartbeat CPU 0 instructions: 500000004 cycles: 127179237 heartbeat IPC: 3.929 cumulative IPC: 3.929 (Simulation time: 01 hr 04 min 59 sec)
Heartbeat CPU 0 instructions: 510000004 cycles: 129724089 heartbeat IPC: 3.93 cumulative IPC: 3.929 (Simulation time: 01 hr 05 min 51 sec)
Heartbeat CPU 0 instructions: 520000003 cycles: 132268974 heartbeat IPC: 3.929 cumulative IPC: 3.929 (Simulation time: 01 hr 06 min 32 sec)
Heartbeat CPU 0 instructions: 530000002 cycles: 134813844 heartbeat IPC: 3.929 cumulative IPC: 3.929 (Simulation time: 01 hr 07 min 14 sec)
Heartbeat CPU 0 instructions: 540000002 cycles: 137358701 heartbeat IPC: 3.929 cumulative IPC: 3.929 (Simulation time: 01 hr 08 min 00 sec)
Heartbeat CPU 0 instructions: 550000001 cycles: 139903576 heartbeat IPC: 3.929 cumulative IPC: 3.929 (Simulation time: 01 hr 08 min 46 sec)
Heartbeat CPU 0 instructions: 560000001 cycles: 142448443 heartbeat IPC: 3.929 cumulative IPC: 3.929 (Simulation time: 01 hr 09 min 34 sec)
Heartbeat CPU 0 instructions: 570000000 cycles: 144993308 heartbeat IPC: 3.929 cumulative IPC: 3.929 (Simulation time: 01 hr 10 min 24 sec)
Heartbeat CPU 0 instructions: 580000004 cycles: 147538169 heartbeat IPC: 3.929 cumulative IPC: 3.929 (Simulation time: 01 hr 11 min 10 sec)
Heartbeat CPU 0 instructions: 590000004 cycles: 150083041 heartbeat IPC: 3.929 cumulative IPC: 3.929 (Simulation time: 01 hr 11 min 58 sec)
*** Reached end of trace: (0, "traces/stress_goto.champsimtrace")
Heartbeat CPU 0 instructions: 600000003 cycles: 152627906 heartbeat IPC: 3.929 cumulative IPC: 3.929 (Simulation time: 01 hr 12 min 53 sec)
Heartbeat CPU 0 instructions: 610000001 cycles: 155514482 heartbeat IPC: 3.464 cumulative IPC: 3.92 (Simulation time: 01 hr 13 min 56 sec)
Heartbeat CPU 0 instructions: 620000002 cycles: 158014483 heartbeat IPC: 4 cumulative IPC: 3.921 (Simulation time: 01 hr 15 min 09 sec)
Heartbeat CPU 0 instructions: 630000003 cycles: 160519295 heartbeat IPC: 3.992 cumulative IPC: 3.923 (Simulation time: 01 hr 16 min 27 sec)
Heartbeat CPU 0 instructions: 640000002 cycles: 163064186 heartbeat IPC: 3.929 cumulative IPC: 3.923 (Simulation time: 01 hr 17 min 50 sec)
Heartbeat CPU 0 instructions: 650000001 cycles: 165609046 heartbeat IPC: 3.929 cumulative IPC: 3.923 (Simulation time: 01 hr 19 min 13 sec)
Simulation finished CPU 0 instructions: 600000002 cycles: 152948873 cumulative IPC: 3.923 (Simulation time: 01 hr 19 min 13 sec)
Simulation complete CPU 0 instructions: 600000002 cycles: 152948873 cumulative IPC: 3.923 (Simulation time: 01 hr 19 min 13 sec)

ChampSim completed all CPUs

=== Simulation ===
CPU 0 runs traces/stress_goto.champsimtrace
Region of Interest Statistics

CPU 0 cumulative IPC: 3.923 instructions: 600000002 cycles: 152948873
CPU 0 Branch Prediction Accuracy: 100% MPKI: 0.01092 Average ROB Occupancy at Mispredict: 157.8
Branch type MPKI
BRANCH_DIRECT_JUMP: 8.33e-05
BRANCH_INDIRECT: 0.000297
BRANCH_CONDITIONAL: 0.0105
BRANCH_DIRECT_CALL: 1.67e-06
BRANCH_INDIRECT_CALL: 4.67e-05
BRANCH_RETURN: 2.17e-05

LLC TOTAL        ACCESS:    6442509 HIT:    6441239 MISS:       1270
LLC LOAD         ACCESS:    3186735 HIT:    3186268 MISS:        467
LLC RFO          ACCESS:      34340 HIT:      34105 MISS:        235
LLC PREFETCH     ACCESS:    3186735 HIT:    3186167 MISS:        568
LLC WRITE        ACCESS:      34699 HIT:      34699 MISS:          0
LLC TRANSLATION  ACCESS:          0 HIT:          0 MISS:          0
LLC PREFETCH REQUESTED:    3186735 ISSUED:    3186735 USEFUL:        334 USELESS:         93
LLC AVERAGE MISS LATENCY: 306.2 cycles
cpu0_DTLB TOTAL        ACCESS:  127155651 HIT:  122262121 MISS:    4893530
cpu0_DTLB LOAD         ACCESS:  127155651 HIT:  122262121 MISS:    4893530
cpu0_DTLB RFO          ACCESS:          0 HIT:          0 MISS:          0
cpu0_DTLB PREFETCH     ACCESS:          0 HIT:          0 MISS:          0
cpu0_DTLB WRITE        ACCESS:          0 HIT:          0 MISS:          0
cpu0_DTLB TRANSLATION  ACCESS:          0 HIT:          0 MISS:          0
cpu0_DTLB PREFETCH REQUESTED:          0 ISSUED:          0 USEFUL:          0 USELESS:          0
cpu0_DTLB AVERAGE MISS LATENCY: 7.995 cycles
cpu0_ITLB TOTAL        ACCESS:       4782 HIT:       4536 MISS:        246
cpu0_ITLB LOAD         ACCESS:       4782 HIT:       4536 MISS:        246
cpu0_ITLB RFO          ACCESS:          0 HIT:          0 MISS:          0
cpu0_ITLB PREFETCH     ACCESS:          0 HIT:          0 MISS:          0
cpu0_ITLB WRITE        ACCESS:          0 HIT:          0 MISS:          0
cpu0_ITLB TRANSLATION  ACCESS:          0 HIT:          0 MISS:          0
cpu0_ITLB PREFETCH REQUESTED:          0 ISSUED:          0 USEFUL:          0 USELESS:          0
cpu0_ITLB AVERAGE MISS LATENCY: 2.337 cycles
cpu0_L1D TOTAL        ACCESS:  162428284 HIT:  155964911 MISS:    6463373
cpu0_L1D LOAD         ACCESS:   56123709 HIT:   50018399 MISS:    6105310
cpu0_L1D RFO          ACCESS:          0 HIT:          0 MISS:          0
cpu0_L1D PREFETCH     ACCESS:          0 HIT:          0 MISS:          0
cpu0_L1D WRITE        ACCESS:  106304575 HIT:  105946512 MISS:     358063
cpu0_L1D TRANSLATION  ACCESS:          0 HIT:          0 MISS:          0
cpu0_L1D PREFETCH REQUESTED:          0 ISSUED:          0 USEFUL:          0 USELESS:          0
cpu0_L1D AVERAGE MISS LATENCY: 19.81 cycles
cpu0_L1I TOTAL        ACCESS:       5521 HIT:       3186 MISS:       2335
cpu0_L1I LOAD         ACCESS:       5521 HIT:       3186 MISS:       2335
cpu0_L1I RFO          ACCESS:          0 HIT:          0 MISS:          0
cpu0_L1I PREFETCH     ACCESS:          0 HIT:          0 MISS:          0
cpu0_L1I WRITE        ACCESS:          0 HIT:          0 MISS:          0
cpu0_L1I TRANSLATION  ACCESS:          0 HIT:          0 MISS:          0
cpu0_L1I PREFETCH REQUESTED:          0 ISSUED:          0 USEFUL:          0 USELESS:          0
cpu0_L1I AVERAGE MISS LATENCY: 40.91 cycles
cpu0_L2C TOTAL        ACCESS:    6190539 HIT:    2969443 MISS:    3221096
cpu0_L2C LOAD         ACCESS:    6073445 HIT:    2886710 MISS:    3186735
cpu0_L2C RFO          ACCESS:      57257 HIT:      22917 MISS:      34340
cpu0_L2C PREFETCH     ACCESS:          0 HIT:          0 MISS:          0
cpu0_L2C WRITE        ACCESS:      59837 HIT:      59816 MISS:         21
cpu0_L2C TRANSLATION  ACCESS:          0 HIT:          0 MISS:          0
cpu0_L2C PREFETCH REQUESTED:          0 ISSUED:          0 USEFUL:          0 USELESS:          0
cpu0_L2C AVERAGE MISS LATENCY: 20.08 cycles
cpu0_STLB TOTAL        ACCESS:    4891213 HIT:    4891213 MISS:          0
cpu0_STLB LOAD         ACCESS:    4891213 HIT:    4891213 MISS:          0
cpu0_STLB RFO          ACCESS:          0 HIT:          0 MISS:          0
cpu0_STLB PREFETCH     ACCESS:          0 HIT:          0 MISS:          0
cpu0_STLB WRITE        ACCESS:          0 HIT:          0 MISS:          0
cpu0_STLB TRANSLATION  ACCESS:          0 HIT:          0 MISS:          0
cpu0_STLB PREFETCH REQUESTED:          0 ISSUED:          0 USEFUL:          0 USELESS:          0
cpu0_STLB AVERAGE MISS LATENCY: -nan cycles

DRAM Statistics

Channel 0 RQ ROW_BUFFER_HIT:        352
  ROW_BUFFER_MISS:        649
 AVG DBUS CONGESTED CYCLE: 3.8
WQ ROW_BUFFER_HIT: Channel 0 
  ROW_BUFFER_MISS:         94
  FULL:        164
