WARNING: physical memory size is smaller than virtual memory size.

*** ChampSim Multicore Out-of-Order Simulator ***
Warmup Instructions: 50000000
Simulation Instructions: 600000000
Number of CPUs: 1
Page size: 4096

Off-chip DRAM Size: 4 GiB Channels: 1 Width: 64-bit Data Race: 3200 MT/s
Heartbeat CPU 0 instructions: 10000001 cycles: 2565786 heartbeat IPC: 3.897 cumulative IPC: 3.897 (Simulation time: 00 hr 00 min 52 sec)
Heartbeat CPU 0 instructions: 20000001 cycles: 5065786 heartbeat IPC: 4 cumulative IPC: 3.948 (Simulation time: 00 hr 01 min 51 sec)
Heartbeat CPU 0 instructions: 30000000 cycles: 7570436 heartbeat IPC: 3.993 cumulative IPC: 3.963 (Simulation time: 00 hr 02 min 48 sec)
Heartbeat CPU 0 instructions: 40000001 cycles: 10115307 heartbeat IPC: 3.929 cumulative IPC: 3.954 (Simulation time: 00 hr 03 min 41 sec)
Heartbeat CPU 0 instructions: 50000004 cycles: 12660174 heartbeat IPC: 3.929 cumulative IPC: 3.949 (Simulation time: 00 hr 04 min 30 sec)
Warmup finished CPU 0 instructions: 50000004 cycles: 12660175 cumulative IPC: 3.949 (Simulation time: 00 hr 04 min 30 sec)
Warmup complete CPU 0 instructions: 50000004 cycles: 12660175 cumulative IPC: 3.949 (Simulation time: 00 hr 04 min 30 sec)
Heartbeat CPU 0 instructions: 60000002 cycles: 15488416 heartbeat IPC: 3.536 cumulative IPC: 3.536 (Simulation time: 00 hr 05 min 36 sec)
Heartbeat CPU 0 instructions: 70000001 cycles: 18310176 heartbeat IPC: 3.544 cumulative IPC: 3.54 (Simulation time: 00 hr 06 min 42 sec)
Heartbeat CPU 0 instructions: 80000001 cycles: 21134095 heartbeat IPC: 3.541 cumulative IPC: 3.54 (Simulation time: 00 hr 07 min 47 sec)
Heartbeat CPU 0 instructions: 90000000 cycles: 23962184 heartbeat IPC: 3.536 cumulative IPC: 3.539 (Simulation time: 00 hr 08 min 51 sec)
Heartbeat CPU 0 instructions: 100000004 cycles: 26779731 heartbeat IPC: 3.549 cumulative IPC: 3.541 (Simulation time: 00 hr 09 min 58 sec)
Heartbeat CPU 0 instructions: 110000004 cycles: 29601787 heartbeat IPC: 3.544 cumulative IPC: 3.542 (Simulation time: 00 hr 11 min 03 sec)
Heartbeat CPU 0 instructions: 120000003 cycles: 32420949 heartbeat IPC: 3.547 cumulative IPC: 3.542 (Simulation time: 00 hr 12 min 03 sec)
Heartbeat CPU 0 instructions: 130000002 cycles: 35242724 heartbeat IPC: 3.544 cumulative IPC: 3.543 (Simulation time: 00 hr 13 min 08 sec)
Heartbeat CPU 0 instructions: 140000002 cycles: 38069835 heartbeat IPC: 3.537 cumulative IPC: 3.542 (Simulation time: 00 hr 14 min 11 sec)
Heartbeat CPU 0 instructions: 150000001 cycles: 40892681 heartbeat IPC: 3.543 cumulative IPC: 3.542 (Simulation time: 00 hr 15 min 15 sec)
Heartbeat CPU 0 instructions: 160000001 cycles: 43718169 heartbeat IPC: 3.539 cumulative IPC: 3.542 (Simulation time: 00 hr 16 min 15 sec)
Heartbeat CPU 0 instructions: 170000000 cycles: 46538684 heartbeat IPC: 3.545 cumulative IPC: 3.542 (Simulation time: 00 hr 17 min 26 sec)
Heartbeat CPU 0 instructions: 180000002 cycles: 49368840 heartbeat IPC: 3.533 cumulative IPC: 3.541 (Simulation time: 00 hr 18 min 33 sec)
Heartbeat CPU 0 instructions: 190000004 cycles: 52188357 heartbeat IPC: 3.547 cumulative IPC: 3.542 (Simulation time: 00 hr 19 min 38 sec)
Heartbeat CPU 0 instructions: 200000003 cycles: 55016447 heartbeat IPC: 3.536 cumulative IPC: 3.541 (Simulation time: 00 hr 20 min 45 sec)
Heartbeat CPU 0 instructions: 210000002 cycles: 57838510 heartbeat IPC: 3.544 cumulative IPC: 3.542 (Simulation time: 00 hr 21 min 50 sec)
Heartbeat CPU 0 instructions: 220000002 cycles: 60658632 heartbeat IPC: 3.546 cumulative IPC: 3.542 (Simulation time: 00 hr 22 min 52 sec)
Heartbeat CPU 0 instructions: 230000001 cycles: 63477244 heartbeat IPC: 3.548 cumulative IPC: 3.542 (Simulation time: 00 hr 23 min 52 sec)
Heartbeat CPU 0 instructions: 240000001 cycles: 66296773 heartbeat IPC: 3.547 cumulative IPC: 3.542 (Simulation time: 00 hr 24 min 53 sec)
Heartbeat CPU 0 instructions: 250000000 cycles: 69118264 heartbeat IPC: 3.544 cumulative IPC: 3.542 (Simulation time: 00 hr 25 min 53 sec)
Heartbeat CPU 0 instructions: 260000004 cycles: 71939407 heartbeat IPC: 3.545 cumulative IPC: 3.543 (Simulation time: 00 hr 26 min 54 sec)
Heartbeat CPU 0 instructions: 270000004 cycles: 74766879 heartbeat IPC: 3.537 cumulative IPC: 3.542 (Simulation time: 00 hr 27 min 54 sec)
Heartbeat CPU 0 instructions: 280000003 cycles: 77588090 heartbeat IPC: 3.545 cumulative IPC: 3.542 (Simulation time: 00 hr 28 min 55 sec)
Heartbeat CPU 0 instructions: 290000000 cycles: 80406416 heartbeat IPC: 3.548 cumulative IPC: 3.543 (Simulation time: 00 hr 29 min 57 sec)
Heartbeat CPU 0 instructions: 300000002 cycles: 83224890 heartbeat IPC: 3.548 cumulative IPC: 3.543 (Simulation time: 00 hr 30 min 57 sec)
Heartbeat CPU 0 instructions: 310000001 cycles: 86042146 heartbeat IPC: 3.55 cumulative IPC: 3.543 (Simulation time: 00 hr 32 min 03 sec)
Heartbeat CPU 0 instructions: 320000001 cycles: 88863998 heartbeat IPC: 3.544 cumulative IPC: 3.543 (Simulation time: 00 hr 33 min 05 sec)
Heartbeat CPU 0 instructions: 330000000 cycles: 91686497 heartbeat IPC: 3.543 cumulative IPC: 3.543 (Simulation time: 00 hr 34 min 06 sec)
Heartbeat CPU 0 instructions: 340000004 cycles: 94509086 heartbeat IPC: 3.543 cumulative IPC: 3.543 (Simulation time: 00 hr 35 min 00 sec)
Heartbeat CPU 0 instructions: 350000004 cycles: 97327975 heartbeat IPC: 3.547 cumulative IPC: 3.543 (Simulation time: 00 hr 35 min 45 sec)
Heartbeat CPU 0 instructions: 360000003 cycles: 100149156 heartbeat IPC: 3.545 cumulative IPC: 3.543 (Simulation time: 00 hr 36 min 40 sec)
Heartbeat CPU 0 instructions: 370000002 cycles: 102969880 heartbeat IPC: 3.545 cumulative IPC: 3.543 (Simulation time: 00 hr 38 min 16 sec)
Heartbeat CPU 0 instructions: 380000002 cycles: 105797815 heartbeat IPC: 3.536 cumulative IPC: 3.543 (Simulation time: 00 hr 39 min 52 sec)
Heartbeat CPU 0 instructions: 390000001 cycles: 108620180 heartbeat IPC: 3.543 cumulative IPC: 3.543 (Simulation time: 00 hr 40 min 35 sec)
Heartbeat CPU 0 instructions: 400000001 cycles: 111444633 heartbeat IPC: 3.541 cumulative IPC: 3.543 (Simulation time: 00 hr 41 min 19 sec)
Heartbeat CPU 0 instructions: 410000000 cycles: 114269047 heartbeat IPC: 3.541 cumulative IPC: 3.543 (Simulation time: 00 hr 42 min 02 sec)
Heartbeat CPU 0 instructions: 420000004 cycles: 117090236 heartbeat IPC: 3.545 cumulative IPC: 3.543 (Simulation time: 00 hr 42 min 45 sec)
Heartbeat CPU 0 instructions: 430000002 cycles: 119916328 heartbeat IPC: 3.538 cumulative IPC: 3.543 (Simulation time: 00 hr 43 min 29 sec)
Heartbeat CPU 0 instructions: 440000003 cycles: 122738609 heartbeat IPC: 3.543 cumulative IPC: 3.543 (Simulation time: 00 hr 44 min 13 sec)
Heartbeat CPU 0 instructions: 450000002 cycles: 125553526 heartbeat IPC: 3.553 cumulative IPC: 3.543 (Simulation time: 00 hr 44 min 58 sec)
Heartbeat CPU 0 instructions: 460000002 cycles: 128378526 heartbeat IPC: 3.54 cumulative IPC: 3.543 (Simulation time: 00 hr 45 min 43 sec)
Heartbeat CPU 0 instructions: 470000001 cycles: 131202733 heartbeat IPC: 3.541 cumulative IPC: 3.543 (Simulation time: 00 hr 46 min 27 sec)
Heartbeat CPU 0 instructions: 480000001 cycles: 134027697 heartbeat IPC: 3.54 cumulative IPC: 3.543 (Simulation time: 00 hr 47 min 11 sec)
Heartbeat CPU 0 instructions: 490000000 cycles: 136851915 heartbeat IPC: 3.541 cumulative IPC: 3.543 (Simulation time: 00 hr 47 min 56 sec)
Heartbeat CPU 0 instructions: 500000004 cycles: 139671100 heartbeat IPC: 3.547 cumulative IPC: 3.543 (Simulation time: 00 hr 48 min 39 sec)
Heartbeat CPU 0 instructions: 510000004 cycles: 142501428 heartbeat IPC: 3.533 cumulative IPC: 3.543 (Simulation time: 00 hr 49 min 23 sec)
Heartbeat CPU 0 instructions: 520000003 cycles: 145327545 heartbeat IPC: 3.538 cumulative IPC: 3.543 (Simulation time: 00 hr 50 min 06 sec)
Heartbeat CPU 0 instructions: 530000002 cycles: 148152201 heartbeat IPC: 3.54 cumulative IPC: 3.543 (Simulation time: 00 hr 50 min 48 sec)
Heartbeat CPU 0 instructions: 540000002 cycles: 150974082 heartbeat IPC: 3.544 cumulative IPC: 3.543 (Simulation time: 00 hr 51 min 31 sec)
Heartbeat CPU 0 instructions: 550000001 cycles: 153803880 heartbeat IPC: 3.534 cumulative IPC: 3.542 (Simulation time: 00 hr 52 min 14 sec)
Heartbeat CPU 0 instructions: 560000001 cycles: 156622485 heartbeat IPC: 3.548 cumulative IPC: 3.543 (Simulation time: 00 hr 52 min 57 sec)
Heartbeat CPU 0 instructions: 570000000 cycles: 159450378 heartbeat IPC: 3.536 cumulative IPC: 3.542 (Simulation time: 00 hr 53 min 40 sec)
Heartbeat CPU 0 instructions: 580000004 cycles: 162275171 heartbeat IPC: 3.54 cumulative IPC: 3.542 (Simulation time: 00 hr 54 min 24 sec)
Heartbeat CPU 0 instructions: 590000004 cycles: 165095235 heartbeat IPC: 3.546 cumulative IPC: 3.542 (Simulation time: 00 hr 55 min 07 sec)
*** Reached end of trace: (0, "traces/stress_goto.champsimtrace")
Heartbeat CPU 0 instructions: 600000003 cycles: 167918868 heartbeat IPC: 3.542 cumulative IPC: 3.542 (Simulation time: 00 hr 55 min 51 sec)
Heartbeat CPU 0 instructions: 610000001 cycles: 170903965 heartbeat IPC: 3.35 cumulative IPC: 3.539 (Simulation time: 00 hr 56 min 32 sec)
Heartbeat CPU 0 instructions: 620000002 cycles: 173603721 heartbeat IPC: 3.704 cumulative IPC: 3.542 (Simulation time: 00 hr 57 min 11 sec)
Heartbeat CPU 0 instructions: 630000003 cycles: 176312603 heartbeat IPC: 3.692 cumulative IPC: 3.544 (Simulation time: 00 hr 57 min 53 sec)
Heartbeat CPU 0 instructions: 640000002 cycles: 179132532 heartbeat IPC: 3.546 cumulative IPC: 3.544 (Simulation time: 00 hr 58 min 36 sec)
Heartbeat CPU 0 instructions: 650000001 cycles: 181949325 heartbeat IPC: 3.55 cumulative IPC: 3.544 (Simulation time: 00 hr 59 min 18 sec)
Simulation finished CPU 0 instructions: 600000002 cycles: 169289152 cumulative IPC: 3.544 (Simulation time: 00 hr 59 min 18 sec)
Simulation complete CPU 0 instructions: 600000002 cycles: 169289152 cumulative IPC: 3.544 (Simulation time: 00 hr 59 min 18 sec)

ChampSim completed all CPUs

=== Simulation ===
CPU 0 runs traces/stress_goto.champsimtrace
Region of Interest Statistics

CPU 0 cumulative IPC: 3.544 instructions: 600000002 cycles: 169289152
CPU 0 Branch Prediction Accuracy: 99.34% MPKI: 1.442 Average ROB Occupancy at Mispredict: 121
Branch type MPKI
BRANCH_DIRECT_JUMP: 8.33e-05
BRANCH_INDIRECT: 0.000297
BRANCH_CONDITIONAL: 1.44
BRANCH_DIRECT_CALL: 1.67e-06
BRANCH_INDIRECT_CALL: 4.67e-05
BRANCH_RETURN: 2.17e-05

LLC TOTAL        ACCESS:    6441079 HIT:    6428922 MISS:      12157
LLC LOAD         ACCESS:    3185953 HIT:    3180021 MISS:       5932
LLC RFO          ACCESS:      34342 HIT:      34155 MISS:        187
LLC PREFETCH     ACCESS:    3185953 HIT:    3180133 MISS:       5820
LLC WRITE        ACCESS:      34831 HIT:      34613 MISS:        218
LLC TRANSLATION  ACCESS:          0 HIT:          0 MISS:          0
LLC PREFETCH REQUESTED:    3185953 ISSUED:    3185953 USEFUL:       2031 USELESS:       3761
LLC AVERAGE MISS LATENCY: 425.6 cycles
cpu0_DTLB TOTAL        ACCESS:  128859483 HIT:  123966047 MISS:    4893436
cpu0_DTLB LOAD         ACCESS:  128859483 HIT:  123966047 MISS:    4893436
cpu0_DTLB RFO          ACCESS:          0 HIT:          0 MISS:          0
cpu0_DTLB PREFETCH     ACCESS:          0 HIT:          0 MISS:          0
cpu0_DTLB WRITE        ACCESS:          0 HIT:          0 MISS:          0
cpu0_DTLB TRANSLATION  ACCESS:          0 HIT:          0 MISS:          0
cpu0_DTLB PREFETCH REQUESTED:          0 ISSUED:          0 USEFUL:          0 USELESS:          0
cpu0_DTLB AVERAGE MISS LATENCY: 7.995 cycles
cpu0_ITLB TOTAL        ACCESS:       4670 HIT:       4459 MISS:        211
cpu0_ITLB LOAD         ACCESS:       4670 HIT:       4459 MISS:        211
cpu0_ITLB RFO          ACCESS:          0 HIT:          0 MISS:          0
cpu0_ITLB PREFETCH     ACCESS:          0 HIT:          0 MISS:          0
cpu0_ITLB WRITE        ACCESS:          0 HIT:          0 MISS:          0
cpu0_ITLB TRANSLATION  ACCESS:          0 HIT:          0 MISS:          0
cpu0_ITLB PREFETCH REQUESTED:          0 ISSUED:          0 USEFUL:          0 USELESS:          0
cpu0_ITLB AVERAGE MISS LATENCY: 3.024 cycles
cpu0_L1D TOTAL        ACCESS:  164460482 HIT:  158054344 MISS:    6406138
cpu0_L1D LOAD         ACCESS:   58155867 HIT:   52050764 MISS:    6105103
cpu0_L1D RFO          ACCESS:          0 HIT:          0 MISS:          0
cpu0_L1D PREFETCH     ACCESS:          0 HIT:          0 MISS:          0
cpu0_L1D WRITE        ACCESS:  106304615 HIT:  106003580 MISS:     301035
cpu0_L1D TRANSLATION  ACCESS:          0 HIT:          0 MISS:          0
cpu0_L1D PREFETCH REQUESTED:          0 ISSUED:          0 USEFUL:          0 USELESS:          0
cpu0_L1D AVERAGE MISS LATENCY: 20.35 cycles
cpu0_L1I TOTAL        ACCESS:       5351 HIT:       3224 MISS:       2127
cpu0_L1I LOAD         ACCESS:       5351 HIT:       3224 MISS:       2127
cpu0_L1I RFO          ACCESS:          0 HIT:          0 MISS:          0
cpu0_L1I PREFETCH     ACCESS:          0 HIT:          0 MISS:          0
cpu0_L1I WRITE        ACCESS:          0 HIT:          0 MISS:          0
cpu0_L1I TRANSLATION  ACCESS:          0 HIT:          0 MISS:          0
cpu0_L1I PREFETCH REQUESTED:          0 ISSUED:          0 USEFUL:          0 USELESS:          0
cpu0_L1I AVERAGE MISS LATENCY: 27.02 cycles
cpu0_L2C TOTAL        ACCESS:    6147102 HIT:    2926652 MISS:    3220450
cpu0_L2C LOAD         ACCESS:    6073463 HIT:    2887510 MISS:    3185953
cpu0_L2C RFO          ACCESS:      36593 HIT:       2251 MISS:      34342
cpu0_L2C PREFETCH     ACCESS:          0 HIT:          0 MISS:          0
cpu0_L2C WRITE        ACCESS:      37046 HIT:      36891 MISS:        155
cpu0_L2C TRANSLATION  ACCESS:          0 HIT:          0 MISS:          0
cpu0_L2C PREFETCH REQUESTED:          0 ISSUED:          0 USEFUL:          0 USELESS:          0
cpu0_L2C AVERAGE MISS LATENCY: 20.82 cycles
cpu0_STLB TOTAL        ACCESS:    4891214 HIT:    4891214 MISS:          0
cpu0_STLB LOAD         ACCESS:    4891214 HIT:    4891214 MISS:          0
cpu0_STLB RFO          ACCESS:          0 HIT:          0 MISS:          0
cpu0_STLB PREFETCH     ACCESS:          0 HIT:          0 MISS:          0
cpu0_STLB WRITE        ACCESS:          0 HIT:          0 MISS:          0
cpu0_STLB TRANSLATION  ACCESS:          0 HIT:          0 MISS:          0
cpu0_STLB PREFETCH REQUESTED:          0 ISSUED:          0 USEFUL:          0 USELESS:          0
cpu0_STLB AVERAGE MISS LATENCY: -nan cycles

DRAM Statistics

Channel 0 RQ ROW_BUFFER_HIT:       2250
  ROW_BUFFER_MISS:       9653
 AVG DBUS CONGESTED CYCLE: 3.858
WQ ROW_BUFFER_HIT: Channel 0 
  ROW_BUFFER_MISS:         51
  FULL:        284
