WARNING: physical memory size is smaller than virtual memory size.

*** ChampSim Multicore Out-of-Order Simulator ***
Warmup Instructions: 50000000
Simulation Instructions: 600000000
Number of CPUs: 1
Page size: 4096

Off-chip DRAM Size: 4 GiB Channels: 1 Width: 64-bit Data Race: 3200 MT/s
Heartbeat CPU 0 instructions: 10000001 cycles: 2565786 heartbeat IPC: 3.897 cumulative IPC: 3.897 (Simulation time: 00 hr 00 min 56 sec)
Heartbeat CPU 0 instructions: 20000001 cycles: 5065786 heartbeat IPC: 4 cumulative IPC: 3.948 (Simulation time: 00 hr 01 min 47 sec)
Heartbeat CPU 0 instructions: 30000000 cycles: 7570436 heartbeat IPC: 3.993 cumulative IPC: 3.963 (Simulation time: 00 hr 02 min 39 sec)
Heartbeat CPU 0 instructions: 40000001 cycles: 10115307 heartbeat IPC: 3.929 cumulative IPC: 3.954 (Simulation time: 00 hr 03 min 26 sec)
Heartbeat CPU 0 instructions: 50000004 cycles: 12660174 heartbeat IPC: 3.929 cumulative IPC: 3.949 (Simulation time: 00 hr 04 min 25 sec)
Warmup finished CPU 0 instructions: 50000004 cycles: 12660175 cumulative IPC: 3.949 (Simulation time: 00 hr 04 min 25 sec)
Warmup complete CPU 0 instructions: 50000004 cycles: 12660175 cumulative IPC: 3.949 (Simulation time: 00 hr 04 min 25 sec)
Heartbeat CPU 0 instructions: 60000002 cycles: 15444478 heartbeat IPC: 3.592 cumulative IPC: 3.592 (Simulation time: 00 hr 05 min 32 sec)
Heartbeat CPU 0 instructions: 70000001 cycles: 18228617 heartbeat IPC: 3.592 cumulative IPC: 3.592 (Simulation time: 00 hr 06 min 35 sec)
Heartbeat CPU 0 instructions: 80000001 cycles: 21012573 heartbeat IPC: 3.592 cumulative IPC: 3.592 (Simulation time: 00 hr 07 min 38 sec)
Heartbeat CPU 0 instructions: 90000000 cycles: 23796652 heartbeat IPC: 3.592 cumulative IPC: 3.592 (Simulation time: 00 hr 08 min 42 sec)
Heartbeat CPU 0 instructions: 100000004 cycles: 26580877 heartbeat IPC: 3.592 cumulative IPC: 3.592 (Simulation time: 00 hr 09 min 43 sec)
Heartbeat CPU 0 instructions: 110000004 cycles: 29365181 heartbeat IPC: 3.592 cumulative IPC: 3.592 (Simulation time: 00 hr 10 min 45 sec)
Heartbeat CPU 0 instructions: 120000003 cycles: 32149530 heartbeat IPC: 3.592 cumulative IPC: 3.592 (Simulation time: 00 hr 11 min 46 sec)
Heartbeat CPU 0 instructions: 130000002 cycles: 34933850 heartbeat IPC: 3.592 cumulative IPC: 3.592 (Simulation time: 00 hr 12 min 46 sec)
Heartbeat CPU 0 instructions: 140000002 cycles: 37718113 heartbeat IPC: 3.592 cumulative IPC: 3.592 (Simulation time: 00 hr 13 min 46 sec)
Heartbeat CPU 0 instructions: 150000001 cycles: 40502243 heartbeat IPC: 3.592 cumulative IPC: 3.592 (Simulation time: 00 hr 14 min 46 sec)
Heartbeat CPU 0 instructions: 160000001 cycles: 43286541 heartbeat IPC: 3.592 cumulative IPC: 3.592 (Simulation time: 00 hr 15 min 46 sec)
Heartbeat CPU 0 instructions: 170000000 cycles: 46070824 heartbeat IPC: 3.592 cumulative IPC: 3.592 (Simulation time: 00 hr 16 min 45 sec)
Heartbeat CPU 0 instructions: 180000002 cycles: 48854987 heartbeat IPC: 3.592 cumulative IPC: 3.592 (Simulation time: 00 hr 17 min 45 sec)
Heartbeat CPU 0 instructions: 190000004 cycles: 51639095 heartbeat IPC: 3.592 cumulative IPC: 3.592 (Simulation time: 00 hr 18 min 46 sec)
Heartbeat CPU 0 instructions: 200000003 cycles: 54423300 heartbeat IPC: 3.592 cumulative IPC: 3.592 (Simulation time: 00 hr 19 min 50 sec)
Heartbeat CPU 0 instructions: 210000002 cycles: 57207454 heartbeat IPC: 3.592 cumulative IPC: 3.592 (Simulation time: 00 hr 20 min 52 sec)
Heartbeat CPU 0 instructions: 220000002 cycles: 59991881 heartbeat IPC: 3.591 cumulative IPC: 3.592 (Simulation time: 00 hr 21 min 52 sec)
Heartbeat CPU 0 instructions: 230000001 cycles: 62776012 heartbeat IPC: 3.592 cumulative IPC: 3.592 (Simulation time: 00 hr 22 min 37 sec)
Heartbeat CPU 0 instructions: 240000001 cycles: 65560243 heartbeat IPC: 3.592 cumulative IPC: 3.592 (Simulation time: 00 hr 23 min 21 sec)
Heartbeat CPU 0 instructions: 250000000 cycles: 68344374 heartbeat IPC: 3.592 cumulative IPC: 3.592 (Simulation time: 00 hr 24 min 31 sec)
Heartbeat CPU 0 instructions: 260000004 cycles: 71128524 heartbeat IPC: 3.592 cumulative IPC: 3.592 (Simulation time: 00 hr 26 min 06 sec)
Heartbeat CPU 0 instructions: 270000004 cycles: 73912866 heartbeat IPC: 3.592 cumulative IPC: 3.592 (Simulation time: 00 hr 27 min 25 sec)
Heartbeat CPU 0 instructions: 280000003 cycles: 76697065 heartbeat IPC: 3.592 cumulative IPC: 3.592 (Simulation time: 00 hr 28 min 08 sec)
Heartbeat CPU 0 instructions: 290000000 cycles: 79481264 heartbeat IPC: 3.592 cumulative IPC: 3.592 (Simulation time: 00 hr 28 min 50 sec)
Heartbeat CPU 0 instructions: 300000002 cycles: 82265534 heartbeat IPC: 3.592 cumulative IPC: 3.592 (Simulation time: 00 hr 29 min 33 sec)
Heartbeat CPU 0 instructions: 310000001 cycles: 85049729 heartbeat IPC: 3.592 cumulative IPC: 3.592 (Simulation time: 00 hr 30 min 16 sec)
Heartbeat CPU 0 instructions: 320000001 cycles: 87833832 heartbeat IPC: 3.592 cumulative IPC: 3.592 (Simulation time: 00 hr 31 min 00 sec)
Heartbeat CPU 0 instructions: 330000000 cycles: 90617925 heartbeat IPC: 3.592 cumulative IPC: 3.592 (Simulation time: 00 hr 31 min 48 sec)
Heartbeat CPU 0 instructions: 340000004 cycles: 93402020 heartbeat IPC: 3.592 cumulative IPC: 3.592 (Simulation time: 00 hr 32 min 34 sec)
Heartbeat CPU 0 instructions: 350000004 cycles: 96186278 heartbeat IPC: 3.592 cumulative IPC: 3.592 (Simulation time: 00 hr 33 min 17 sec)
Heartbeat CPU 0 instructions: 360000003 cycles: 98970304 heartbeat IPC: 3.592 cumulative IPC: 3.592 (Simulation time: 00 hr 34 min 00 sec)
Heartbeat CPU 0 instructions: 370000002 cycles: 101754549 heartbeat IPC: 3.592 cumulative IPC: 3.592 (Simulation time: 00 hr 34 min 44 sec)
Heartbeat CPU 0 instructions: 380000002 cycles: 104538874 heartbeat IPC: 3.592 cumulative IPC: 3.592 (Simulation time: 00 hr 35 min 26 sec)
Heartbeat CPU 0 instructions: 390000001 cycles: 107323086 heartbeat IPC: 3.592 cumulative IPC: 3.592 (Simulation time: 00 hr 36 min 08 sec)
Heartbeat CPU 0 instructions: 400000001 cycles: 110107642 heartbeat IPC: 3.591 cumulative IPC: 3.592 (Simulation time: 00 hr 36 min 50 sec)
Heartbeat CPU 0 instructions: 410000000 cycles: 112891737 heartbeat IPC: 3.592 cumulative IPC: 3.592 (Simulation time: 00 hr 37 min 32 sec)
Heartbeat CPU 0 instructions: 420000004 cycles: 115675861 heartbeat IPC: 3.592 cumulative IPC: 3.592 (Simulation time: 00 hr 38 min 15 sec)
Heartbeat CPU 0 instructions: 430000002 cycles: 118460018 heartbeat IPC: 3.592 cumulative IPC: 3.592 (Simulation time: 00 hr 38 min 57 sec)
Heartbeat CPU 0 instructions: 440000003 cycles: 121244182 heartbeat IPC: 3.592 cumulative IPC: 3.592 (Simulation time: 00 hr 39 min 39 sec)
Heartbeat CPU 0 instructions: 450000002 cycles: 124028319 heartbeat IPC: 3.592 cumulative IPC: 3.592 (Simulation time: 00 hr 40 min 21 sec)
Heartbeat CPU 0 instructions: 460000002 cycles: 126812769 heartbeat IPC: 3.591 cumulative IPC: 3.592 (Simulation time: 00 hr 41 min 03 sec)
Heartbeat CPU 0 instructions: 470000001 cycles: 129596905 heartbeat IPC: 3.592 cumulative IPC: 3.592 (Simulation time: 00 hr 41 min 45 sec)
Heartbeat CPU 0 instructions: 480000001 cycles: 132381027 heartbeat IPC: 3.592 cumulative IPC: 3.592 (Simulation time: 00 hr 42 min 29 sec)
Heartbeat CPU 0 instructions: 490000000 cycles: 135165173 heartbeat IPC: 3.592 cumulative IPC: 3.592 (Simulation time: 00 hr 43 min 11 sec)
Heartbeat CPU 0 instructions: 500000004 cycles: 137949296 heartbeat IPC: 3.592 cumulative IPC: 3.592 (Simulation time: 00 hr 43 min 55 sec)
Heartbeat CPU 0 instructions: 510000004 cycles: 140733519 heartbeat IPC: 3.592 cumulative IPC: 3.592 (Simulation time: 00 hr 44 min 38 sec)
Heartbeat CPU 0 instructions: 520000003 cycles: 143517679 heartbeat IPC: 3.592 cumulative IPC: 3.592 (Simulation time: 00 hr 45 min 22 sec)
Heartbeat CPU 0 instructions: 530000002 cycles: 146301918 heartbeat IPC: 3.592 cumulative IPC: 3.592 (Simulation time: 00 hr 46 min 04 sec)
Heartbeat CPU 0 instructions: 540000002 cycles: 149086026 heartbeat IPC: 3.592 cumulative IPC: 3.592 (Simulation time: 00 hr 46 min 47 sec)
Heartbeat CPU 0 instructions: 550000001 cycles: 151870352 heartbeat IPC: 3.592 cumulative IPC: 3.592 (Simulation time: 00 hr 47 min 31 sec)
Heartbeat CPU 0 instructions: 560000001 cycles: 154654550 heartbeat IPC: 3.592 cumulative IPC: 3.592 (Simulation time: 00 hr 48 min 17 sec)
Heartbeat CPU 0 instructions: 570000000 cycles: 157438646 heartbeat IPC: 3.592 cumulative IPC: 3.592 (Simulation time: 00 hr 49 min 10 sec)
Heartbeat CPU 0 instructions: 580000004 cycles: 160222812 heartbeat IPC: 3.592 cumulative IPC: 3.592 (Simulation time: 00 hr 49 min 55 sec)
Heartbeat CPU 0 instructions: 590000004 cycles: 163007260 heartbeat IPC: 3.591 cumulative IPC: 3.592 (Simulation time: 00 hr 50 min 48 sec)
*** Reached end of trace: (0, "traces/stress_goto.champsimtrace")
Heartbeat CPU 0 instructions: 600000003 cycles: 165791361 heartbeat IPC: 3.592 cumulative IPC: 3.592 (Simulation time: 00 hr 51 min 36 sec)
Heartbeat CPU 0 instructions: 610000001 cycles: 168836757 heartbeat IPC: 3.284 cumulative IPC: 3.586 (Simulation time: 00 hr 52 min 23 sec)
Heartbeat CPU 0 instructions: 620000002 cycles: 171536513 heartbeat IPC: 3.704 cumulative IPC: 3.588 (Simulation time: 00 hr 53 min 03 sec)
Heartbeat CPU 0 instructions: 630000003 cycles: 174245395 heartbeat IPC: 3.692 cumulative IPC: 3.589 (Simulation time: 00 hr 53 min 42 sec)
Heartbeat CPU 0 instructions: 640000002 cycles: 177029544 heartbeat IPC: 3.592 cumulative IPC: 3.589 (Simulation time: 00 hr 54 min 26 sec)
Heartbeat CPU 0 instructions: 650000001 cycles: 179813842 heartbeat IPC: 3.592 cumulative IPC: 3.59 (Simulation time: 00 hr 55 min 08 sec)
Simulation finished CPU 0 instructions: 600000002 cycles: 167153669 cumulative IPC: 3.59 (Simulation time: 00 hr 55 min 08 sec)
Simulation complete CPU 0 instructions: 600000002 cycles: 167153669 cumulative IPC: 3.59 (Simulation time: 00 hr 55 min 08 sec)

ChampSim completed all CPUs

=== Simulation ===
CPU 0 runs traces/stress_goto.champsimtrace
Region of Interest Statistics

CPU 0 cumulative IPC: 3.59 instructions: 600000002 cycles: 167153669
CPU 0 Branch Prediction Accuracy: 99.34% MPKI: 1.442 Average ROB Occupancy at Mispredict: 120.2
Branch type MPKI
BRANCH_DIRECT_JUMP: 8.33e-05
BRANCH_INDIRECT: 0.000297
BRANCH_CONDITIONAL: 1.44
BRANCH_DIRECT_CALL: 1.67e-06
BRANCH_INDIRECT_CALL: 4.67e-05
BRANCH_RETURN: 2.17e-05

LLC TOTAL        ACCESS:    3261591 HIT:    3261305 MISS:        286
LLC LOAD         ACCESS:    3185972 HIT:    3185700 MISS:        272
LLC RFO          ACCESS:      34341 HIT:      34341 MISS:          0
LLC PREFETCH     ACCESS:       6452 HIT:       6438 MISS:         14
LLC WRITE        ACCESS:      34826 HIT:      34826 MISS:          0
LLC TRANSLATION  ACCESS:          0 HIT:          0 MISS:          0
LLC PREFETCH REQUESTED:       6452 ISSUED:       6452 USEFUL:          1 USELESS:          9
LLC AVERAGE MISS LATENCY: 367.1 cycles
cpu0_DTLB TOTAL        ACCESS:  128955700 HIT:  124062274 MISS:    4893426
cpu0_DTLB LOAD         ACCESS:  128955700 HIT:  124062274 MISS:    4893426
cpu0_DTLB RFO          ACCESS:          0 HIT:          0 MISS:          0
cpu0_DTLB PREFETCH     ACCESS:          0 HIT:          0 MISS:          0
cpu0_DTLB WRITE        ACCESS:          0 HIT:          0 MISS:          0
cpu0_DTLB TRANSLATION  ACCESS:          0 HIT:          0 MISS:          0
cpu0_DTLB PREFETCH REQUESTED:          0 ISSUED:          0 USEFUL:          0 USELESS:          0
cpu0_DTLB AVERAGE MISS LATENCY: 7.995 cycles
cpu0_ITLB TOTAL        ACCESS:       4668 HIT:       4459 MISS:        209
cpu0_ITLB LOAD         ACCESS:       4668 HIT:       4459 MISS:        209
cpu0_ITLB RFO          ACCESS:          0 HIT:          0 MISS:          0
cpu0_ITLB PREFETCH     ACCESS:          0 HIT:          0 MISS:          0
cpu0_ITLB WRITE        ACCESS:          0 HIT:          0 MISS:          0
cpu0_ITLB TRANSLATION  ACCESS:          0 HIT:          0 MISS:          0
cpu0_ITLB PREFETCH REQUESTED:          0 ISSUED:          0 USEFUL:          0 USELESS:          0
cpu0_ITLB AVERAGE MISS LATENCY: 3.072 cycles
cpu0_L1D TOTAL        ACCESS:  164466503 HIT:  158060370 MISS:    6406133
cpu0_L1D LOAD         ACCESS:   58161890 HIT:   52056315 MISS:    6105575
cpu0_L1D RFO          ACCESS:          0 HIT:          0 MISS:          0
cpu0_L1D PREFETCH     ACCESS:          0 HIT:          0 MISS:          0
cpu0_L1D WRITE        ACCESS:  106304613 HIT:  106004055 MISS:     300558
cpu0_L1D TRANSLATION  ACCESS:          0 HIT:          0 MISS:          0
cpu0_L1D PREFETCH REQUESTED:          0 ISSUED:          0 USEFUL:          0 USELESS:          0
cpu0_L1D AVERAGE MISS LATENCY: 19.95 cycles
cpu0_L1I TOTAL        ACCESS:       5348 HIT:       3230 MISS:       2118
cpu0_L1I LOAD         ACCESS:       5348 HIT:       3230 MISS:       2118
cpu0_L1I RFO          ACCESS:          0 HIT:          0 MISS:          0
cpu0_L1I PREFETCH     ACCESS:          0 HIT:          0 MISS:          0
cpu0_L1I WRITE        ACCESS:          0 HIT:          0 MISS:          0
cpu0_L1I TRANSLATION  ACCESS:          0 HIT:          0 MISS:          0
cpu0_L1I PREFETCH REQUESTED:          0 ISSUED:          0 USEFUL:          0 USELESS:          0
cpu0_L1I AVERAGE MISS LATENCY: 38.19 cycles
cpu0_L2C TOTAL        ACCESS:    6147246 HIT:    2926787 MISS:    3220459
cpu0_L2C LOAD         ACCESS:    6073463 HIT:    2887491 MISS:    3185972
cpu0_L2C RFO          ACCESS:      36663 HIT:       2322 MISS:      34341
cpu0_L2C PREFETCH     ACCESS:          0 HIT:          0 MISS:          0
cpu0_L2C WRITE        ACCESS:      37120 HIT:      36974 MISS:        146
cpu0_L2C TRANSLATION  ACCESS:          0 HIT:          0 MISS:          0
cpu0_L2C PREFETCH REQUESTED:          0 ISSUED:          0 USEFUL:          0 USELESS:          0
cpu0_L2C AVERAGE MISS LATENCY: 20.03 cycles
cpu0_STLB TOTAL        ACCESS:    4891211 HIT:    4891211 MISS:          0
cpu0_STLB LOAD         ACCESS:    4891211 HIT:    4891211 MISS:          0
cpu0_STLB RFO          ACCESS:          0 HIT:          0 MISS:          0
cpu0_STLB PREFETCH     ACCESS:          0 HIT:          0 MISS:          0
cpu0_STLB WRITE        ACCESS:          0 HIT:          0 MISS:          0
cpu0_STLB TRANSLATION  ACCESS:          0 HIT:          0 MISS:          0
cpu0_STLB PREFETCH REQUESTED:          0 ISSUED:          0 USEFUL:          0 USELESS:          0
cpu0_STLB AVERAGE MISS LATENCY: -nan cycles

DRAM Statistics

Channel 0 RQ ROW_BUFFER_HIT:        115
  ROW_BUFFER_MISS:        170
 AVG DBUS CONGESTED CYCLE: 3.748
WQ ROW_BUFFER_HIT: Channel 0 
  ROW_BUFFER_MISS:          0
  FULL:          0
