WARNING: physical memory size is smaller than virtual memory size.

*** ChampSim Multicore Out-of-Order Simulator ***
Warmup Instructions: 50000000
Simulation Instructions: 600000000
Number of CPUs: 1
Page size: 4096

Off-chip DRAM Size: 4 GiB Channels: 1 Width: 64-bit Data Race: 3200 MT/s
Heartbeat CPU 0 instructions: 10000000 cycles: 2500061 heartbeat IPC: 4 cumulative IPC: 4 (Simulation time: 00 hr 00 min 57 sec)
Heartbeat CPU 0 instructions: 20000000 cycles: 5000061 heartbeat IPC: 4 cumulative IPC: 4 (Simulation time: 00 hr 02 min 13 sec)
Heartbeat CPU 0 instructions: 30000000 cycles: 7500061 heartbeat IPC: 4 cumulative IPC: 4 (Simulation time: 00 hr 04 min 00 sec)
Heartbeat CPU 0 instructions: 40000000 cycles: 10000061 heartbeat IPC: 4 cumulative IPC: 4 (Simulation time: 00 hr 06 min 08 sec)
Heartbeat CPU 0 instructions: 50000000 cycles: 12500061 heartbeat IPC: 4 cumulative IPC: 4 (Simulation time: 00 hr 09 min 04 sec)
Warmup finished CPU 0 instructions: 50000000 cycles: 12500062 cumulative IPC: 4 (Simulation time: 00 hr 09 min 04 sec)
Warmup complete CPU 0 instructions: 50000000 cycles: 12500062 cumulative IPC: 4 (Simulation time: 00 hr 09 min 04 sec)
Heartbeat CPU 0 instructions: 60000002 cycles: 16907366 heartbeat IPC: 2.269 cumulative IPC: 2.269 (Simulation time: 00 hr 14 min 13 sec)
Heartbeat CPU 0 instructions: 70000003 cycles: 21889050 heartbeat IPC: 2.007 cumulative IPC: 2.13 (Simulation time: 00 hr 19 min 25 sec)
Heartbeat CPU 0 instructions: 80000001 cycles: 27230745 heartbeat IPC: 1.872 cumulative IPC: 2.037 (Simulation time: 00 hr 24 min 55 sec)
Heartbeat CPU 0 instructions: 90000000 cycles: 31527294 heartbeat IPC: 2.327 cumulative IPC: 2.102 (Simulation time: 00 hr 29 min 48 sec)
Heartbeat CPU 0 instructions: 100000003 cycles: 36379334 heartbeat IPC: 2.061 cumulative IPC: 2.094 (Simulation time: 00 hr 34 min 57 sec)
Heartbeat CPU 0 instructions: 110000002 cycles: 41247374 heartbeat IPC: 2.054 cumulative IPC: 2.087 (Simulation time: 00 hr 40 min 09 sec)
Heartbeat CPU 0 instructions: 120000001 cycles: 46240828 heartbeat IPC: 2.003 cumulative IPC: 2.075 (Simulation time: 00 hr 45 min 22 sec)
Heartbeat CPU 0 instructions: 130000003 cycles: 50807189 heartbeat IPC: 2.19 cumulative IPC: 2.088 (Simulation time: 00 hr 50 min 23 sec)
Heartbeat CPU 0 instructions: 140000002 cycles: 55694832 heartbeat IPC: 2.046 cumulative IPC: 2.084 (Simulation time: 00 hr 55 min 31 sec)
Heartbeat CPU 0 instructions: 150000001 cycles: 60360024 heartbeat IPC: 2.144 cumulative IPC: 2.089 (Simulation time: 01 hr 00 min 34 sec)
Heartbeat CPU 0 instructions: 160000000 cycles: 64996045 heartbeat IPC: 2.157 cumulative IPC: 2.095 (Simulation time: 01 hr 05 min 36 sec)
Heartbeat CPU 0 instructions: 170000000 cycles: 70325364 heartbeat IPC: 1.876 cumulative IPC: 2.075 (Simulation time: 01 hr 11 min 01 sec)
Heartbeat CPU 0 instructions: 180000001 cycles: 76043102 heartbeat IPC: 1.749 cumulative IPC: 2.046 (Simulation time: 01 hr 16 min 42 sec)
Heartbeat CPU 0 instructions: 190000002 cycles: 80511237 heartbeat IPC: 2.238 cumulative IPC: 2.058 (Simulation time: 01 hr 21 min 39 sec)
Heartbeat CPU 0 instructions: 200000002 cycles: 85411245 heartbeat IPC: 2.041 cumulative IPC: 2.057 (Simulation time: 01 hr 26 min 50 sec)
Heartbeat CPU 0 instructions: 210000000 cycles: 90413026 heartbeat IPC: 1.999 cumulative IPC: 2.054 (Simulation time: 01 hr 32 min 03 sec)
Heartbeat CPU 0 instructions: 220000001 cycles: 95334767 heartbeat IPC: 2.032 cumulative IPC: 2.052 (Simulation time: 01 hr 37 min 11 sec)
Heartbeat CPU 0 instructions: 230000002 cycles: 100578650 heartbeat IPC: 1.907 cumulative IPC: 2.044 (Simulation time: 01 hr 42 min 34 sec)
Heartbeat CPU 0 instructions: 240000001 cycles: 105540806 heartbeat IPC: 2.015 cumulative IPC: 2.042 (Simulation time: 01 hr 47 min 45 sec)
Heartbeat CPU 0 instructions: 250000003 cycles: 110715200 heartbeat IPC: 1.933 cumulative IPC: 2.036 (Simulation time: 01 hr 53 min 01 sec)
Heartbeat CPU 0 instructions: 260000001 cycles: 115571230 heartbeat IPC: 2.059 cumulative IPC: 2.037 (Simulation time: 01 hr 58 min 11 sec)
Heartbeat CPU 0 instructions: 270000000 cycles: 123225925 heartbeat IPC: 1.306 cumulative IPC: 1.987 (Simulation time: 02 hr 05 min 08 sec)
Heartbeat CPU 0 instructions: 280000000 cycles: 134197698 heartbeat IPC: 0.9114 cumulative IPC: 1.89 (Simulation time: 02 hr 14 min 27 sec)
Heartbeat CPU 0 instructions: 290000001 cycles: 144106921 heartbeat IPC: 1.009 cumulative IPC: 1.824 (Simulation time: 02 hr 23 min 08 sec)
Heartbeat CPU 0 instructions: 300000003 cycles: 151609467 heartbeat IPC: 1.333 cumulative IPC: 1.797 (Simulation time: 02 hr 30 min 33 sec)
Heartbeat CPU 0 instructions: 310000004 cycles: 162399622 heartbeat IPC: 0.9268 cumulative IPC: 1.734 (Simulation time: 02 hr 39 min 55 sec)
Heartbeat CPU 0 instructions: 320000004 cycles: 168054945 heartbeat IPC: 1.768 cumulative IPC: 1.736 (Simulation time: 02 hr 45 min 52 sec)
Heartbeat CPU 0 instructions: 330000000 cycles: 173281462 heartbeat IPC: 1.913 cumulative IPC: 1.741 (Simulation time: 02 hr 51 min 23 sec)
Heartbeat CPU 0 instructions: 340000001 cycles: 178030894 heartbeat IPC: 2.106 cumulative IPC: 1.752 (Simulation time: 02 hr 56 min 33 sec)
Heartbeat CPU 0 instructions: 350000000 cycles: 182985951 heartbeat IPC: 2.018 cumulative IPC: 1.76 (Simulation time: 03 hr 01 min 51 sec)
Heartbeat CPU 0 instructions: 360000003 cycles: 187775484 heartbeat IPC: 2.088 cumulative IPC: 1.769 (Simulation time: 03 hr 07 min 04 sec)
Heartbeat CPU 0 instructions: 370000001 cycles: 192551759 heartbeat IPC: 2.094 cumulative IPC: 1.777 (Simulation time: 03 hr 12 min 08 sec)
Heartbeat CPU 0 instructions: 380000004 cycles: 197648786 heartbeat IPC: 1.962 cumulative IPC: 1.782 (Simulation time: 03 hr 17 min 31 sec)
Heartbeat CPU 0 instructions: 390000002 cycles: 202731538 heartbeat IPC: 1.967 cumulative IPC: 1.787 (Simulation time: 03 hr 22 min 55 sec)
Heartbeat CPU 0 instructions: 400000000 cycles: 207967033 heartbeat IPC: 1.91 cumulative IPC: 1.791 (Simulation time: 03 hr 28 min 21 sec)
Heartbeat CPU 0 instructions: 410000000 cycles: 215112154 heartbeat IPC: 1.4 cumulative IPC: 1.777 (Simulation time: 03 hr 35 min 05 sec)
Heartbeat CPU 0 instructions: 420000001 cycles: 225243334 heartbeat IPC: 0.9871 cumulative IPC: 1.739 (Simulation time: 03 hr 43 min 56 sec)
Heartbeat CPU 0 instructions: 430000000 cycles: 232304568 heartbeat IPC: 1.416 cumulative IPC: 1.729 (Simulation time: 03 hr 51 min 03 sec)
Heartbeat CPU 0 instructions: 440000002 cycles: 239209961 heartbeat IPC: 1.448 cumulative IPC: 1.72 (Simulation time: 03 hr 57 min 58 sec)
Heartbeat CPU 0 instructions: 450000000 cycles: 245932796 heartbeat IPC: 1.487 cumulative IPC: 1.714 (Simulation time: 04 hr 04 min 47 sec)
Heartbeat CPU 0 instructions: 460000002 cycles: 255764045 heartbeat IPC: 1.017 cumulative IPC: 1.685 (Simulation time: 04 hr 13 min 32 sec)
Heartbeat CPU 0 instructions: 470000000 cycles: 264972364 heartbeat IPC: 1.086 cumulative IPC: 1.664 (Simulation time: 04 hr 21 min 45 sec)
Heartbeat CPU 0 instructions: 480000000 cycles: 270252163 heartbeat IPC: 1.894 cumulative IPC: 1.668 (Simulation time: 04 hr 27 min 14 sec)
Heartbeat CPU 0 instructions: 490000001 cycles: 275463482 heartbeat IPC: 1.919 cumulative IPC: 1.673 (Simulation time: 04 hr 32 min 44 sec)
Heartbeat CPU 0 instructions: 500000002 cycles: 280703705 heartbeat IPC: 1.908 cumulative IPC: 1.678 (Simulation time: 04 hr 38 min 13 sec)
Heartbeat CPU 0 instructions: 510000000 cycles: 286119026 heartbeat IPC: 1.847 cumulative IPC: 1.681 (Simulation time: 04 hr 43 min 51 sec)
Heartbeat CPU 0 instructions: 520000000 cycles: 291679353 heartbeat IPC: 1.798 cumulative IPC: 1.684 (Simulation time: 04 hr 49 min 31 sec)
Heartbeat CPU 0 instructions: 530000001 cycles: 301616075 heartbeat IPC: 1.006 cumulative IPC: 1.66 (Simulation time: 04 hr 58 min 12 sec)
Heartbeat CPU 0 instructions: 540000000 cycles: 310915009 heartbeat IPC: 1.075 cumulative IPC: 1.642 (Simulation time: 05 hr 06 min 44 sec)
Heartbeat CPU 0 instructions: 550000002 cycles: 321966480 heartbeat IPC: 0.9049 cumulative IPC: 1.616 (Simulation time: 05 hr 16 min 11 sec)
Heartbeat CPU 0 instructions: 560000004 cycles: 326666642 heartbeat IPC: 2.128 cumulative IPC: 1.623 (Simulation time: 05 hr 21 min 18 sec)
Heartbeat CPU 0 instructions: 570000001 cycles: 331064280 heartbeat IPC: 2.274 cumulative IPC: 1.632 (Simulation time: 05 hr 26 min 29 sec)
Heartbeat CPU 0 instructions: 580000003 cycles: 335296836 heartbeat IPC: 2.363 cumulative IPC: 1.642 (Simulation time: 05 hr 31 min 20 sec)
Heartbeat CPU 0 instructions: 590000001 cycles: 340190057 heartbeat IPC: 2.044 cumulative IPC: 1.648 (Simulation time: 05 hr 36 min 46 sec)
Heartbeat CPU 0 instructions: 600000003 cycles: 344826527 heartbeat IPC: 2.157 cumulative IPC: 1.655 (Simulation time: 05 hr 42 min 04 sec)
Heartbeat CPU 0 instructions: 610000001 cycles: 349678510 heartbeat IPC: 2.061 cumulative IPC: 1.661 (Simulation time: 05 hr 47 min 43 sec)
Heartbeat CPU 0 instructions: 620000000 cycles: 354741087 heartbeat IPC: 1.975 cumulative IPC: 1.665 (Simulation time: 05 hr 53 min 14 sec)
Heartbeat CPU 0 instructions: 630000002 cycles: 358982014 heartbeat IPC: 2.358 cumulative IPC: 1.674 (Simulation time: 05 hr 58 min 32 sec)
Heartbeat CPU 0 instructions: 640000004 cycles: 364275223 heartbeat IPC: 1.889 cumulative IPC: 1.677 (Simulation time: 06 hr 04 min 18 sec)
Heartbeat CPU 0 instructions: 650000001 cycles: 369030945 heartbeat IPC: 2.103 cumulative IPC: 1.683 (Simulation time: 06 hr 09 min 44 sec)
Simulation finished CPU 0 instructions: 600000001 cycles: 356530884 cumulative IPC: 1.683 (Simulation time: 06 hr 09 min 44 sec)
Simulation complete CPU 0 instructions: 600000001 cycles: 356530884 cumulative IPC: 1.683 (Simulation time: 06 hr 09 min 44 sec)

ChampSim completed all CPUs

=== Simulation ===
CPU 0 runs traces/400.perlbench-50B.champsimtrace.xz
Region of Interest Statistics

CPU 0 cumulative IPC: 1.683 instructions: 600000001 cycles: 356530884
CPU 0 Branch Prediction Accuracy: 93.83% MPKI: 12.71 Average ROB Occupancy at Mispredict: 29.41
Branch type MPKI
BRANCH_DIRECT_JUMP: 0.0176
BRANCH_INDIRECT: 0.38
BRANCH_CONDITIONAL: 11.9
BRANCH_DIRECT_CALL: 0.0067
BRANCH_INDIRECT_CALL: 0.431
BRANCH_RETURN: 0.0161

LLC TOTAL        ACCESS:     851407 HIT:     616279 MISS:     235128
LLC LOAD         ACCESS:     587778 HIT:     402796 MISS:     184982
LLC RFO          ACCESS:      47572 HIT:      31944 MISS:      15628
LLC PREFETCH     ACCESS:      65777 HIT:      44368 MISS:      21409
LLC WRITE        ACCESS:     128303 HIT:     126454 MISS:       1849
LLC TRANSLATION  ACCESS:      21977 HIT:      10717 MISS:      11260
LLC PREFETCH REQUESTED:      65777 ISSUED:      65777 USEFUL:      11198 USELESS:       6736
LLC AVERAGE MISS LATENCY: 504.9 cycles
cpu0_DTLB TOTAL        ACCESS:  156777259 HIT:  155476505 MISS:    1300754
cpu0_DTLB LOAD         ACCESS:  156777259 HIT:  155476505 MISS:    1300754
cpu0_DTLB RFO          ACCESS:          0 HIT:          0 MISS:          0
cpu0_DTLB PREFETCH     ACCESS:          0 HIT:          0 MISS:          0
cpu0_DTLB WRITE        ACCESS:          0 HIT:          0 MISS:          0
cpu0_DTLB TRANSLATION  ACCESS:          0 HIT:          0 MISS:          0
cpu0_DTLB PREFETCH REQUESTED:          0 ISSUED:          0 USEFUL:          0 USELESS:          0
cpu0_DTLB AVERAGE MISS LATENCY: 11.31 cycles
cpu0_ITLB TOTAL        ACCESS:    8933306 HIT:    8734729 MISS:     198577
cpu0_ITLB LOAD         ACCESS:    8933306 HIT:    8734729 MISS:     198577
cpu0_ITLB RFO          ACCESS:          0 HIT:          0 MISS:          0
cpu0_ITLB PREFETCH     ACCESS:          0 HIT:          0 MISS:          0
cpu0_ITLB WRITE        ACCESS:          0 HIT:          0 MISS:          0
cpu0_ITLB TRANSLATION  ACCESS:          0 HIT:          0 MISS:          0
cpu0_ITLB PREFETCH REQUESTED:          0 ISSUED:          0 USEFUL:          0 USELESS:          0
cpu0_ITLB AVERAGE MISS LATENCY: 2.899 cycles
cpu0_L1D TOTAL        ACCESS:  203624889 HIT:  199964316 MISS:    3660573
cpu0_L1D LOAD         ACCESS:  117948120 HIT:  114939760 MISS:    3008360
cpu0_L1D RFO          ACCESS:          0 HIT:          0 MISS:          0
cpu0_L1D PREFETCH     ACCESS:          0 HIT:          0 MISS:          0
cpu0_L1D WRITE        ACCESS:   85648225 HIT:   85023144 MISS:     625081
cpu0_L1D TRANSLATION  ACCESS:      28544 HIT:       1412 MISS:      27132
cpu0_L1D PREFETCH REQUESTED:          0 ISSUED:          0 USEFUL:          0 USELESS:          0
cpu0_L1D AVERAGE MISS LATENCY: 35.53 cycles
cpu0_L1I TOTAL        ACCESS:   10371934 HIT:    8574509 MISS:    1797425
cpu0_L1I LOAD         ACCESS:   10371934 HIT:    8574509 MISS:    1797425
cpu0_L1I RFO          ACCESS:          0 HIT:          0 MISS:          0
cpu0_L1I PREFETCH     ACCESS:          0 HIT:          0 MISS:          0
cpu0_L1I WRITE        ACCESS:          0 HIT:          0 MISS:          0
cpu0_L1I TRANSLATION  ACCESS:          0 HIT:          0 MISS:          0
cpu0_L1I PREFETCH REQUESTED:          0 ISSUED:          0 USEFUL:          0 USELESS:          0
cpu0_L1I AVERAGE MISS LATENCY: 9.859 cycles
cpu0_L2C TOTAL        ACCESS:    3837185 HIT:    3176604 MISS:     660581
cpu0_L2C LOAD         ACCESS:    3106437 HIT:    2518659 MISS:     587778
cpu0_L2C RFO          ACCESS:     191794 HIT:     144222 MISS:      47572
cpu0_L2C PREFETCH     ACCESS:          0 HIT:          0 MISS:          0
cpu0_L2C WRITE        ACCESS:     511902 HIT:     508648 MISS:       3254
cpu0_L2C TRANSLATION  ACCESS:      27052 HIT:       5075 MISS:      21977
cpu0_L2C PREFETCH REQUESTED:          0 ISSUED:          0 USEFUL:          0 USELESS:          0
cpu0_L2C AVERAGE MISS LATENCY: 183.2 cycles
cpu0_STLB TOTAL        ACCESS:    1009241 HIT:     982549 MISS:      26692
cpu0_STLB LOAD         ACCESS:    1009241 HIT:     982549 MISS:      26692
cpu0_STLB RFO          ACCESS:          0 HIT:          0 MISS:          0
cpu0_STLB PREFETCH     ACCESS:          0 HIT:          0 MISS:          0
cpu0_STLB WRITE        ACCESS:          0 HIT:          0 MISS:          0
cpu0_STLB TRANSLATION  ACCESS:          0 HIT:          0 MISS:          0
cpu0_STLB PREFETCH REQUESTED:          0 ISSUED:          0 USEFUL:          0 USELESS:          0
cpu0_STLB AVERAGE MISS LATENCY: 327.1 cycles

DRAM Statistics

Channel 0 RQ ROW_BUFFER_HIT:      51535
  ROW_BUFFER_MISS:     177352
 AVG DBUS CONGESTED CYCLE: 3.776
WQ ROW_BUFFER_HIT: Channel 0 
  ROW_BUFFER_MISS:       7560
  FULL:      17392
