WARNING: physical memory size is smaller than virtual memory size.

*** ChampSim Multicore Out-of-Order Simulator ***
Warmup Instructions: 50000000
Simulation Instructions: 600000000
Number of CPUs: 1
Page size: 4096

Off-chip DRAM Size: 4 GiB Channels: 1 Width: 64-bit Data Race: 3200 MT/s
Heartbeat CPU 0 instructions: 10000001 cycles: 2500318 heartbeat IPC: 3.999 cumulative IPC: 3.999 (Simulation time: 00 hr 00 min 50 sec)
Heartbeat CPU 0 instructions: 20000002 cycles: 5037114 heartbeat IPC: 3.942 cumulative IPC: 3.971 (Simulation time: 00 hr 01 min 42 sec)
Heartbeat CPU 0 instructions: 30000002 cycles: 7537114 heartbeat IPC: 4 cumulative IPC: 3.98 (Simulation time: 00 hr 02 min 34 sec)
Heartbeat CPU 0 instructions: 40000002 cycles: 10037114 heartbeat IPC: 4 cumulative IPC: 3.985 (Simulation time: 00 hr 03 min 23 sec)
Heartbeat CPU 0 instructions: 50000002 cycles: 12537114 heartbeat IPC: 4 cumulative IPC: 3.988 (Simulation time: 00 hr 04 min 11 sec)
Warmup finished CPU 0 instructions: 50000002 cycles: 12537115 cumulative IPC: 3.988 (Simulation time: 00 hr 04 min 11 sec)
Warmup complete CPU 0 instructions: 50000002 cycles: 12537115 cumulative IPC: 3.988 (Simulation time: 00 hr 04 min 11 sec)
Heartbeat CPU 0 instructions: 60000000 cycles: 17695260 heartbeat IPC: 1.939 cumulative IPC: 1.939 (Simulation time: 00 hr 05 min 24 sec)
Heartbeat CPU 0 instructions: 70000002 cycles: 22580290 heartbeat IPC: 2.047 cumulative IPC: 1.991 (Simulation time: 00 hr 06 min 37 sec)
Heartbeat CPU 0 instructions: 80000001 cycles: 27934656 heartbeat IPC: 1.868 cumulative IPC: 1.948 (Simulation time: 00 hr 07 min 52 sec)
Heartbeat CPU 0 instructions: 90000001 cycles: 32800750 heartbeat IPC: 2.055 cumulative IPC: 1.974 (Simulation time: 00 hr 09 min 02 sec)
Heartbeat CPU 0 instructions: 100000000 cycles: 37903722 heartbeat IPC: 1.96 cumulative IPC: 1.971 (Simulation time: 00 hr 10 min 14 sec)
Heartbeat CPU 0 instructions: 110000000 cycles: 42780908 heartbeat IPC: 2.05 cumulative IPC: 1.984 (Simulation time: 00 hr 11 min 27 sec)
Heartbeat CPU 0 instructions: 120000001 cycles: 47967667 heartbeat IPC: 1.928 cumulative IPC: 1.976 (Simulation time: 00 hr 12 min 35 sec)
Heartbeat CPU 0 instructions: 130000001 cycles: 53112186 heartbeat IPC: 1.944 cumulative IPC: 1.972 (Simulation time: 00 hr 13 min 48 sec)
Heartbeat CPU 0 instructions: 140000001 cycles: 58418968 heartbeat IPC: 1.884 cumulative IPC: 1.962 (Simulation time: 00 hr 14 min 52 sec)
Heartbeat CPU 0 instructions: 150000001 cycles: 63730257 heartbeat IPC: 1.883 cumulative IPC: 1.953 (Simulation time: 00 hr 15 min 57 sec)
Heartbeat CPU 0 instructions: 160000004 cycles: 68928633 heartbeat IPC: 1.924 cumulative IPC: 1.951 (Simulation time: 00 hr 17 min 05 sec)
Heartbeat CPU 0 instructions: 170000000 cycles: 78231771 heartbeat IPC: 1.075 cumulative IPC: 1.827 (Simulation time: 00 hr 18 min 44 sec)
Heartbeat CPU 0 instructions: 180000004 cycles: 87609246 heartbeat IPC: 1.066 cumulative IPC: 1.732 (Simulation time: 00 hr 20 min 28 sec)
Heartbeat CPU 0 instructions: 190000001 cycles: 97426430 heartbeat IPC: 1.019 cumulative IPC: 1.649 (Simulation time: 00 hr 22 min 18 sec)
Heartbeat CPU 0 instructions: 200000003 cycles: 102159344 heartbeat IPC: 2.113 cumulative IPC: 1.674 (Simulation time: 00 hr 23 min 24 sec)
Heartbeat CPU 0 instructions: 210000001 cycles: 107054900 heartbeat IPC: 2.043 cumulative IPC: 1.693 (Simulation time: 00 hr 24 min 32 sec)
Heartbeat CPU 0 instructions: 220000000 cycles: 111874688 heartbeat IPC: 2.075 cumulative IPC: 1.711 (Simulation time: 00 hr 25 min 40 sec)
Heartbeat CPU 0 instructions: 230000002 cycles: 117160051 heartbeat IPC: 1.892 cumulative IPC: 1.72 (Simulation time: 00 hr 26 min 49 sec)
Heartbeat CPU 0 instructions: 240000000 cycles: 121974558 heartbeat IPC: 2.077 cumulative IPC: 1.736 (Simulation time: 00 hr 27 min 55 sec)
Heartbeat CPU 0 instructions: 250000000 cycles: 127106620 heartbeat IPC: 1.949 cumulative IPC: 1.746 (Simulation time: 00 hr 29 min 04 sec)
Heartbeat CPU 0 instructions: 260000000 cycles: 132101064 heartbeat IPC: 2.002 cumulative IPC: 1.756 (Simulation time: 00 hr 30 min 12 sec)
Heartbeat CPU 0 instructions: 270000002 cycles: 136966676 heartbeat IPC: 2.055 cumulative IPC: 1.768 (Simulation time: 00 hr 31 min 20 sec)
Heartbeat CPU 0 instructions: 280000002 cycles: 141850764 heartbeat IPC: 2.047 cumulative IPC: 1.779 (Simulation time: 00 hr 32 min 28 sec)
Heartbeat CPU 0 instructions: 290000001 cycles: 147204350 heartbeat IPC: 1.868 cumulative IPC: 1.782 (Simulation time: 00 hr 33 min 38 sec)
Heartbeat CPU 0 instructions: 300000003 cycles: 152226505 heartbeat IPC: 1.991 cumulative IPC: 1.79 (Simulation time: 00 hr 34 min 46 sec)
Heartbeat CPU 0 instructions: 310000001 cycles: 157480392 heartbeat IPC: 1.903 cumulative IPC: 1.794 (Simulation time: 00 hr 35 min 55 sec)
Heartbeat CPU 0 instructions: 320000003 cycles: 162664509 heartbeat IPC: 1.929 cumulative IPC: 1.798 (Simulation time: 00 hr 37 min 06 sec)
Heartbeat CPU 0 instructions: 330000003 cycles: 167925294 heartbeat IPC: 1.901 cumulative IPC: 1.802 (Simulation time: 00 hr 38 min 17 sec)
Heartbeat CPU 0 instructions: 340000000 cycles: 176958944 heartbeat IPC: 1.107 cumulative IPC: 1.764 (Simulation time: 00 hr 40 min 01 sec)
Heartbeat CPU 0 instructions: 350000000 cycles: 186662926 heartbeat IPC: 1.031 cumulative IPC: 1.723 (Simulation time: 00 hr 41 min 53 sec)
Heartbeat CPU 0 instructions: 360000004 cycles: 196389315 heartbeat IPC: 1.028 cumulative IPC: 1.686 (Simulation time: 00 hr 43 min 45 sec)
Heartbeat CPU 0 instructions: 370000000 cycles: 200773465 heartbeat IPC: 2.281 cumulative IPC: 1.7 (Simulation time: 00 hr 44 min 50 sec)
Heartbeat CPU 0 instructions: 380000001 cycles: 205674031 heartbeat IPC: 2.041 cumulative IPC: 1.709 (Simulation time: 00 hr 45 min 58 sec)
Heartbeat CPU 0 instructions: 390000002 cycles: 210483241 heartbeat IPC: 2.079 cumulative IPC: 1.718 (Simulation time: 00 hr 47 min 05 sec)
Heartbeat CPU 0 instructions: 400000004 cycles: 215409374 heartbeat IPC: 2.03 cumulative IPC: 1.725 (Simulation time: 00 hr 48 min 14 sec)
Heartbeat CPU 0 instructions: 410000000 cycles: 220121758 heartbeat IPC: 2.122 cumulative IPC: 1.734 (Simulation time: 00 hr 49 min 21 sec)
Heartbeat CPU 0 instructions: 420000000 cycles: 225190138 heartbeat IPC: 1.973 cumulative IPC: 1.74 (Simulation time: 00 hr 50 min 30 sec)
Heartbeat CPU 0 instructions: 430000001 cycles: 229636060 heartbeat IPC: 2.249 cumulative IPC: 1.75 (Simulation time: 00 hr 51 min 36 sec)
Heartbeat CPU 0 instructions: 440000000 cycles: 234956285 heartbeat IPC: 1.88 cumulative IPC: 1.753 (Simulation time: 00 hr 52 min 48 sec)
Heartbeat CPU 0 instructions: 450000002 cycles: 239603147 heartbeat IPC: 2.152 cumulative IPC: 1.762 (Simulation time: 00 hr 53 min 55 sec)
Heartbeat CPU 0 instructions: 460000000 cycles: 244365983 heartbeat IPC: 2.1 cumulative IPC: 1.769 (Simulation time: 00 hr 55 min 02 sec)
Heartbeat CPU 0 instructions: 470000000 cycles: 249322095 heartbeat IPC: 2.018 cumulative IPC: 1.774 (Simulation time: 00 hr 56 min 12 sec)
Heartbeat CPU 0 instructions: 480000003 cycles: 254070496 heartbeat IPC: 2.106 cumulative IPC: 1.78 (Simulation time: 00 hr 57 min 19 sec)
Heartbeat CPU 0 instructions: 490000000 cycles: 258664366 heartbeat IPC: 2.177 cumulative IPC: 1.788 (Simulation time: 00 hr 58 min 25 sec)
Heartbeat CPU 0 instructions: 500000000 cycles: 263669992 heartbeat IPC: 1.998 cumulative IPC: 1.792 (Simulation time: 00 hr 59 min 35 sec)
Heartbeat CPU 0 instructions: 510000003 cycles: 269253610 heartbeat IPC: 1.791 cumulative IPC: 1.792 (Simulation time: 01 hr 00 min 48 sec)
Heartbeat CPU 0 instructions: 520000001 cycles: 273914666 heartbeat IPC: 2.145 cumulative IPC: 1.798 (Simulation time: 01 hr 01 min 56 sec)
Heartbeat CPU 0 instructions: 530000002 cycles: 279023763 heartbeat IPC: 1.957 cumulative IPC: 1.801 (Simulation time: 01 hr 03 min 06 sec)
Heartbeat CPU 0 instructions: 540000000 cycles: 284120965 heartbeat IPC: 1.962 cumulative IPC: 1.804 (Simulation time: 01 hr 04 min 11 sec)
Heartbeat CPU 0 instructions: 550000001 cycles: 288912706 heartbeat IPC: 2.087 cumulative IPC: 1.809 (Simulation time: 01 hr 05 min 14 sec)
Heartbeat CPU 0 instructions: 560000000 cycles: 294087110 heartbeat IPC: 1.933 cumulative IPC: 1.811 (Simulation time: 01 hr 06 min 19 sec)
Heartbeat CPU 0 instructions: 570000004 cycles: 300618370 heartbeat IPC: 1.531 cumulative IPC: 1.805 (Simulation time: 01 hr 07 min 34 sec)
Heartbeat CPU 0 instructions: 580000003 cycles: 310831383 heartbeat IPC: 0.9791 cumulative IPC: 1.777 (Simulation time: 01 hr 09 min 18 sec)
Heartbeat CPU 0 instructions: 590000002 cycles: 322587836 heartbeat IPC: 0.8506 cumulative IPC: 1.742 (Simulation time: 01 hr 11 min 22 sec)
Heartbeat CPU 0 instructions: 600000000 cycles: 327104746 heartbeat IPC: 2.214 cumulative IPC: 1.748 (Simulation time: 01 hr 12 min 32 sec)
Heartbeat CPU 0 instructions: 610000002 cycles: 331579047 heartbeat IPC: 2.235 cumulative IPC: 1.755 (Simulation time: 01 hr 13 min 40 sec)
Heartbeat CPU 0 instructions: 620000000 cycles: 336372647 heartbeat IPC: 2.086 cumulative IPC: 1.76 (Simulation time: 01 hr 14 min 45 sec)
Heartbeat CPU 0 instructions: 630000002 cycles: 341441984 heartbeat IPC: 1.973 cumulative IPC: 1.763 (Simulation time: 01 hr 15 min 57 sec)
Heartbeat CPU 0 instructions: 640000001 cycles: 346287399 heartbeat IPC: 2.064 cumulative IPC: 1.768 (Simulation time: 01 hr 17 min 06 sec)
Heartbeat CPU 0 instructions: 650000000 cycles: 350834741 heartbeat IPC: 2.199 cumulative IPC: 1.774 (Simulation time: 01 hr 18 min 16 sec)
Simulation finished CPU 0 instructions: 600000001 cycles: 338297628 cumulative IPC: 1.774 (Simulation time: 01 hr 18 min 16 sec)
Simulation complete CPU 0 instructions: 600000001 cycles: 338297628 cumulative IPC: 1.774 (Simulation time: 01 hr 18 min 16 sec)

ChampSim completed all CPUs

=== Simulation ===
CPU 0 runs traces/400.perlbench-41B.champsimtrace.xz
Region of Interest Statistics

CPU 0 cumulative IPC: 1.774 instructions: 600000001 cycles: 338297628
CPU 0 Branch Prediction Accuracy: 93.95% MPKI: 12.5 Average ROB Occupancy at Mispredict: 29.49
Branch type MPKI
BRANCH_DIRECT_JUMP: 0.0123
BRANCH_INDIRECT: 0.323
BRANCH_CONDITIONAL: 12
BRANCH_DIRECT_CALL: 0.0043
BRANCH_INDIRECT_CALL: 0.2
BRANCH_RETURN: 0.00828

LLC TOTAL        ACCESS:     940157 HIT:     588738 MISS:     351419
LLC LOAD         ACCESS:     401373 HIT:     241244 MISS:     160129
LLC RFO          ACCESS:      32858 HIT:      21572 MISS:      11286
LLC PREFETCH     ACCESS:     401373 HIT:     231108 MISS:     170265
LLC WRITE        ACCESS:      85514 HIT:      85419 MISS:         95
LLC TRANSLATION  ACCESS:      19039 HIT:       9395 MISS:       9644
LLC PREFETCH REQUESTED:     401373 ISSUED:     401373 USEFUL:      57534 USELESS:      68905
LLC AVERAGE MISS LATENCY: 548.1 cycles
cpu0_DTLB TOTAL        ACCESS:  153687217 HIT:  153010050 MISS:     677167
cpu0_DTLB LOAD         ACCESS:  153687217 HIT:  153010050 MISS:     677167
cpu0_DTLB RFO          ACCESS:          0 HIT:          0 MISS:          0
cpu0_DTLB PREFETCH     ACCESS:          0 HIT:          0 MISS:          0
cpu0_DTLB WRITE        ACCESS:          0 HIT:          0 MISS:          0
cpu0_DTLB TRANSLATION  ACCESS:          0 HIT:          0 MISS:          0
cpu0_DTLB PREFETCH REQUESTED:          0 ISSUED:          0 USEFUL:          0 USELESS:          0
cpu0_DTLB AVERAGE MISS LATENCY: 15.27 cycles
cpu0_ITLB TOTAL        ACCESS:    4835401 HIT:    4777504 MISS:      57897
cpu0_ITLB LOAD         ACCESS:    4835401 HIT:    4777504 MISS:      57897
cpu0_ITLB RFO          ACCESS:          0 HIT:          0 MISS:          0
cpu0_ITLB PREFETCH     ACCESS:          0 HIT:          0 MISS:          0
cpu0_ITLB WRITE        ACCESS:          0 HIT:          0 MISS:          0
cpu0_ITLB TRANSLATION  ACCESS:          0 HIT:          0 MISS:          0
cpu0_ITLB PREFETCH REQUESTED:          0 ISSUED:          0 USEFUL:          0 USELESS:          0
cpu0_ITLB AVERAGE MISS LATENCY: 7.513 cycles
cpu0_L1D TOTAL        ACCESS:  200305622 HIT:  198578751 MISS:    1726871
cpu0_L1D LOAD         ACCESS:  117063245 HIT:  115717308 MISS:    1345937
cpu0_L1D RFO          ACCESS:          0 HIT:          0 MISS:          0
cpu0_L1D PREFETCH     ACCESS:          0 HIT:          0 MISS:          0
cpu0_L1D WRITE        ACCESS:   83217919 HIT:   82860406 MISS:     357513
cpu0_L1D TRANSLATION  ACCESS:      24458 HIT:       1037 MISS:      23421
cpu0_L1D PREFETCH REQUESTED:          0 ISSUED:          0 USEFUL:          0 USELESS:          0
cpu0_L1D AVERAGE MISS LATENCY: 69.32 cycles
cpu0_L1I TOTAL        ACCESS:    5577935 HIT:    4816382 MISS:     761553
cpu0_L1I LOAD         ACCESS:    5577935 HIT:    4816382 MISS:     761553
cpu0_L1I RFO          ACCESS:          0 HIT:          0 MISS:          0
cpu0_L1I PREFETCH     ACCESS:          0 HIT:          0 MISS:          0
cpu0_L1I WRITE        ACCESS:          0 HIT:          0 MISS:          0
cpu0_L1I TRANSLATION  ACCESS:          0 HIT:          0 MISS:          0
cpu0_L1I PREFETCH REQUESTED:          0 ISSUED:          0 USEFUL:          0 USELESS:          0
cpu0_L1I AVERAGE MISS LATENCY: 10.56 cycles
cpu0_L2C TOTAL        ACCESS:    1667946 HIT:    1212852 MISS:     455094
cpu0_L2C LOAD         ACCESS:    1317104 HIT:     915731 MISS:     401373
cpu0_L2C RFO          ACCESS:      88617 HIT:      55759 MISS:      32858
cpu0_L2C PREFETCH     ACCESS:          0 HIT:          0 MISS:          0
cpu0_L2C WRITE        ACCESS:     238881 HIT:     237057 MISS:       1824
cpu0_L2C TRANSLATION  ACCESS:      23344 HIT:       4305 MISS:      19039
cpu0_L2C PREFETCH REQUESTED:          0 ISSUED:          0 USEFUL:          0 USELESS:          0
cpu0_L2C AVERAGE MISS LATENCY: 258 cycles
cpu0_STLB TOTAL        ACCESS:     505217 HIT:     482428 MISS:      22789
cpu0_STLB LOAD         ACCESS:     505217 HIT:     482428 MISS:      22789
cpu0_STLB RFO          ACCESS:          0 HIT:          0 MISS:          0
cpu0_STLB PREFETCH     ACCESS:          0 HIT:          0 MISS:          0
cpu0_STLB WRITE        ACCESS:          0 HIT:          0 MISS:          0
cpu0_STLB TRANSLATION  ACCESS:          0 HIT:          0 MISS:          0
cpu0_STLB PREFETCH REQUESTED:          0 ISSUED:          0 USEFUL:          0 USELESS:          0
cpu0_STLB AVERAGE MISS LATENCY: 331.2 cycles

DRAM Statistics

Channel 0 RQ ROW_BUFFER_HIT:      57296
  ROW_BUFFER_MISS:     238654
 AVG DBUS CONGESTED CYCLE: 3.85
WQ ROW_BUFFER_HIT: Channel 0 
  ROW_BUFFER_MISS:       5649
  FULL:      22865
