WARNING: physical memory size is smaller than virtual memory size.

*** ChampSim Multicore Out-of-Order Simulator ***
Warmup Instructions: 50000000
Simulation Instructions: 600000000
Number of CPUs: 1
Page size: 4096

CPU 0 Tage branch predictor
Off-chip DRAM Size: 4 GiB Channels: 1 Width: 64-bit Data Race: 3200 MT/s
Heartbeat CPU 0 instructions: 10000000 cycles: 2500061 heartbeat IPC: 4 cumulative IPC: 4 (Simulation time: 00 hr 03 min 58 sec)
Heartbeat CPU 0 instructions: 20000000 cycles: 5000061 heartbeat IPC: 4 cumulative IPC: 4 (Simulation time: 00 hr 08 min 03 sec)
Heartbeat CPU 0 instructions: 30000000 cycles: 7500061 heartbeat IPC: 4 cumulative IPC: 4 (Simulation time: 00 hr 12 min 13 sec)
Heartbeat CPU 0 instructions: 40000000 cycles: 10000061 heartbeat IPC: 4 cumulative IPC: 4 (Simulation time: 00 hr 16 min 13 sec)
Heartbeat CPU 0 instructions: 50000000 cycles: 12500061 heartbeat IPC: 4 cumulative IPC: 4 (Simulation time: 00 hr 20 min 18 sec)
Warmup finished CPU 0 instructions: 50000000 cycles: 12500062 cumulative IPC: 4 (Simulation time: 00 hr 20 min 18 sec)
Warmup complete CPU 0 instructions: 50000000 cycles: 12500062 cumulative IPC: 4 (Simulation time: 00 hr 20 min 18 sec)
Heartbeat CPU 0 instructions: 60000004 cycles: 15504489 heartbeat IPC: 3.328 cumulative IPC: 3.328 (Simulation time: 00 hr 25 min 05 sec)
Heartbeat CPU 0 instructions: 70000003 cycles: 18370762 heartbeat IPC: 3.489 cumulative IPC: 3.407 (Simulation time: 00 hr 29 min 49 sec)
Heartbeat CPU 0 instructions: 80000002 cycles: 21382300 heartbeat IPC: 3.321 cumulative IPC: 3.378 (Simulation time: 00 hr 34 min 37 sec)
Heartbeat CPU 0 instructions: 90000000 cycles: 24100329 heartbeat IPC: 3.679 cumulative IPC: 3.448 (Simulation time: 00 hr 39 min 05 sec)
Heartbeat CPU 0 instructions: 100000003 cycles: 26857493 heartbeat IPC: 3.627 cumulative IPC: 3.483 (Simulation time: 00 hr 43 min 25 sec)
Heartbeat CPU 0 instructions: 110000001 cycles: 29755202 heartbeat IPC: 3.451 cumulative IPC: 3.477 (Simulation time: 00 hr 47 min 32 sec)
Heartbeat CPU 0 instructions: 120000001 cycles: 32471687 heartbeat IPC: 3.681 cumulative IPC: 3.505 (Simulation time: 00 hr 51 min 37 sec)
Heartbeat CPU 0 instructions: 130000003 cycles: 35371153 heartbeat IPC: 3.449 cumulative IPC: 3.498 (Simulation time: 00 hr 55 min 35 sec)
Heartbeat CPU 0 instructions: 140000002 cycles: 38204957 heartbeat IPC: 3.529 cumulative IPC: 3.501 (Simulation time: 00 hr 59 min 25 sec)
Heartbeat CPU 0 instructions: 150000001 cycles: 40975005 heartbeat IPC: 3.61 cumulative IPC: 3.512 (Simulation time: 01 hr 03 min 11 sec)
Heartbeat CPU 0 instructions: 160000000 cycles: 43892634 heartbeat IPC: 3.427 cumulative IPC: 3.504 (Simulation time: 01 hr 06 min 52 sec)
Heartbeat CPU 0 instructions: 170000001 cycles: 46821114 heartbeat IPC: 3.415 cumulative IPC: 3.496 (Simulation time: 01 hr 10 min 36 sec)
Heartbeat CPU 0 instructions: 180000000 cycles: 49612148 heartbeat IPC: 3.583 cumulative IPC: 3.503 (Simulation time: 01 hr 14 min 16 sec)
Heartbeat CPU 0 instructions: 190000002 cycles: 52319155 heartbeat IPC: 3.694 cumulative IPC: 3.516 (Simulation time: 01 hr 17 min 57 sec)
Heartbeat CPU 0 instructions: 200000002 cycles: 55139904 heartbeat IPC: 3.545 cumulative IPC: 3.518 (Simulation time: 01 hr 21 min 42 sec)
Heartbeat CPU 0 instructions: 210000000 cycles: 58032602 heartbeat IPC: 3.457 cumulative IPC: 3.514 (Simulation time: 01 hr 25 min 23 sec)
Heartbeat CPU 0 instructions: 220000001 cycles: 60784611 heartbeat IPC: 3.634 cumulative IPC: 3.521 (Simulation time: 01 hr 29 min 01 sec)
Heartbeat CPU 0 instructions: 230000002 cycles: 63673784 heartbeat IPC: 3.461 cumulative IPC: 3.517 (Simulation time: 01 hr 32 min 43 sec)
Heartbeat CPU 0 instructions: 240000004 cycles: 66624801 heartbeat IPC: 3.389 cumulative IPC: 3.51 (Simulation time: 01 hr 36 min 27 sec)
Heartbeat CPU 0 instructions: 250000003 cycles: 69515661 heartbeat IPC: 3.459 cumulative IPC: 3.508 (Simulation time: 01 hr 40 min 06 sec)
Heartbeat CPU 0 instructions: 260000001 cycles: 72300103 heartbeat IPC: 3.591 cumulative IPC: 3.512 (Simulation time: 01 hr 43 min 55 sec)
Heartbeat CPU 0 instructions: 270000002 cycles: 78059363 heartbeat IPC: 1.736 cumulative IPC: 3.356 (Simulation time: 01 hr 49 min 37 sec)
Heartbeat CPU 0 instructions: 280000000 cycles: 86737218 heartbeat IPC: 1.152 cumulative IPC: 3.098 (Simulation time: 01 hr 57 min 09 sec)
Heartbeat CPU 0 instructions: 290000000 cycles: 95151248 heartbeat IPC: 1.188 cumulative IPC: 2.904 (Simulation time: 02 hr 04 min 30 sec)
Heartbeat CPU 0 instructions: 300000003 cycles: 101294624 heartbeat IPC: 1.628 cumulative IPC: 2.815 (Simulation time: 02 hr 10 min 42 sec)
Heartbeat CPU 0 instructions: 310000001 cycles: 110395364 heartbeat IPC: 1.099 cumulative IPC: 2.656 (Simulation time: 02 hr 18 min 36 sec)
Heartbeat CPU 0 instructions: 320000004 cycles: 114657106 heartbeat IPC: 2.346 cumulative IPC: 2.643 (Simulation time: 02 hr 23 min 38 sec)
Heartbeat CPU 0 instructions: 330000000 cycles: 117807043 heartbeat IPC: 3.175 cumulative IPC: 2.659 (Simulation time: 02 hr 27 min 56 sec)
Heartbeat CPU 0 instructions: 340000001 cycles: 120860942 heartbeat IPC: 3.275 cumulative IPC: 2.676 (Simulation time: 02 hr 32 min 07 sec)
Heartbeat CPU 0 instructions: 350000000 cycles: 123959538 heartbeat IPC: 3.227 cumulative IPC: 2.692 (Simulation time: 02 hr 36 min 23 sec)
Heartbeat CPU 0 instructions: 360000004 cycles: 126813993 heartbeat IPC: 3.503 cumulative IPC: 2.712 (Simulation time: 02 hr 40 min 28 sec)
Heartbeat CPU 0 instructions: 370000001 cycles: 129611869 heartbeat IPC: 3.574 cumulative IPC: 2.732 (Simulation time: 02 hr 44 min 34 sec)
Heartbeat CPU 0 instructions: 380000004 cycles: 132433019 heartbeat IPC: 3.545 cumulative IPC: 2.752 (Simulation time: 02 hr 48 min 40 sec)
Heartbeat CPU 0 instructions: 390000002 cycles: 135278213 heartbeat IPC: 3.515 cumulative IPC: 2.769 (Simulation time: 02 hr 52 min 47 sec)
Heartbeat CPU 0 instructions: 400000000 cycles: 138179358 heartbeat IPC: 3.447 cumulative IPC: 2.785 (Simulation time: 02 hr 57 min 02 sec)
Heartbeat CPU 0 instructions: 410000000 cycles: 143005669 heartbeat IPC: 2.072 cumulative IPC: 2.759 (Simulation time: 03 hr 02 min 06 sec)
Heartbeat CPU 0 instructions: 420000003 cycles: 148791692 heartbeat IPC: 1.728 cumulative IPC: 2.715 (Simulation time: 03 hr 07 min 49 sec)
Heartbeat CPU 0 instructions: 430000000 cycles: 155157746 heartbeat IPC: 1.571 cumulative IPC: 2.664 (Simulation time: 03 hr 13 min 55 sec)
Heartbeat CPU 0 instructions: 440000004 cycles: 161192785 heartbeat IPC: 1.657 cumulative IPC: 2.623 (Simulation time: 03 hr 19 min 13 sec)
Heartbeat CPU 0 instructions: 450000001 cycles: 166960331 heartbeat IPC: 1.734 cumulative IPC: 2.59 (Simulation time: 03 hr 24 min 22 sec)
Heartbeat CPU 0 instructions: 460000002 cycles: 176038054 heartbeat IPC: 1.102 cumulative IPC: 2.507 (Simulation time: 03 hr 31 min 09 sec)
Heartbeat CPU 0 instructions: 470000003 cycles: 183856866 heartbeat IPC: 1.279 cumulative IPC: 2.451 (Simulation time: 03 hr 37 min 17 sec)
Heartbeat CPU 0 instructions: 480000000 cycles: 187219089 heartbeat IPC: 2.974 cumulative IPC: 2.461 (Simulation time: 03 hr 41 min 04 sec)
Heartbeat CPU 0 instructions: 490000001 cycles: 190432077 heartbeat IPC: 3.112 cumulative IPC: 2.473 (Simulation time: 03 hr 44 min 48 sec)
Heartbeat CPU 0 instructions: 500000002 cycles: 193393026 heartbeat IPC: 3.377 cumulative IPC: 2.488 (Simulation time: 03 hr 48 min 24 sec)
Heartbeat CPU 0 instructions: 510000000 cycles: 196260591 heartbeat IPC: 3.487 cumulative IPC: 2.503 (Simulation time: 03 hr 51 min 58 sec)
Heartbeat CPU 0 instructions: 520000000 cycles: 199124478 heartbeat IPC: 3.492 cumulative IPC: 2.518 (Simulation time: 03 hr 55 min 34 sec)
Heartbeat CPU 0 instructions: 530000001 cycles: 205239527 heartbeat IPC: 1.635 cumulative IPC: 2.49 (Simulation time: 04 hr 00 min 48 sec)
Heartbeat CPU 0 instructions: 540000000 cycles: 212758942 heartbeat IPC: 1.33 cumulative IPC: 2.447 (Simulation time: 04 hr 06 min 58 sec)
Heartbeat CPU 0 instructions: 550000004 cycles: 222768169 heartbeat IPC: 0.9991 cumulative IPC: 2.378 (Simulation time: 04 hr 14 min 18 sec)
Heartbeat CPU 0 instructions: 560000004 cycles: 226447624 heartbeat IPC: 2.718 cumulative IPC: 2.384 (Simulation time: 04 hr 18 min 04 sec)
Heartbeat CPU 0 instructions: 570000002 cycles: 229275754 heartbeat IPC: 3.536 cumulative IPC: 2.399 (Simulation time: 04 hr 21 min 25 sec)
Heartbeat CPU 0 instructions: 580000000 cycles: 232204593 heartbeat IPC: 3.414 cumulative IPC: 2.412 (Simulation time: 04 hr 24 min 43 sec)
Heartbeat CPU 0 instructions: 590000001 cycles: 235131175 heartbeat IPC: 3.417 cumulative IPC: 2.426 (Simulation time: 04 hr 28 min 01 sec)
Heartbeat CPU 0 instructions: 600000003 cycles: 237822910 heartbeat IPC: 3.715 cumulative IPC: 2.441 (Simulation time: 04 hr 31 min 04 sec)
Heartbeat CPU 0 instructions: 610000001 cycles: 240691741 heartbeat IPC: 3.486 cumulative IPC: 2.454 (Simulation time: 04 hr 33 min 51 sec)
Heartbeat CPU 0 instructions: 620000004 cycles: 243643941 heartbeat IPC: 3.387 cumulative IPC: 2.466 (Simulation time: 04 hr 36 min 19 sec)
Heartbeat CPU 0 instructions: 630000002 cycles: 246455408 heartbeat IPC: 3.557 cumulative IPC: 2.479 (Simulation time: 04 hr 38 min 44 sec)
Heartbeat CPU 0 instructions: 640000004 cycles: 249503098 heartbeat IPC: 3.281 cumulative IPC: 2.489 (Simulation time: 04 hr 41 min 00 sec)
Heartbeat CPU 0 instructions: 650000001 cycles: 252210434 heartbeat IPC: 3.694 cumulative IPC: 2.503 (Simulation time: 04 hr 42 min 56 sec)
Simulation finished CPU 0 instructions: 600000001 cycles: 239710373 cumulative IPC: 2.503 (Simulation time: 04 hr 42 min 56 sec)
Simulation complete CPU 0 instructions: 600000001 cycles: 239710373 cumulative IPC: 2.503 (Simulation time: 04 hr 42 min 56 sec)

ChampSim completed all CPUs

=== Simulation ===
CPU 0 runs traces/400.perlbench-50B.champsimtrace.xz
Region of Interest Statistics

CPU 0 cumulative IPC: 2.503 instructions: 600000001 cycles: 239710373
CPU 0 Branch Prediction Accuracy: 99.01% MPKI: 2.04 Average ROB Occupancy at Mispredict: 95
Branch type MPKI
BRANCH_DIRECT_JUMP: 0.0176
BRANCH_INDIRECT: 0.38
BRANCH_CONDITIONAL: 1.19
BRANCH_DIRECT_CALL: 0.0067
BRANCH_INDIRECT_CALL: 0.431
BRANCH_RETURN: 0.0161

LLC TOTAL        ACCESS:     785428 HIT:     530307 MISS:     255121
LLC LOAD         ACCESS:     587405 HIT:     380621 MISS:     206784
LLC RFO          ACCESS:      47332 HIT:      30082 MISS:      17250
LLC PREFETCH     ACCESS:          0 HIT:          0 MISS:          0
LLC WRITE        ACCESS:     128638 HIT:     112075 MISS:      16563
LLC TRANSLATION  ACCESS:      22053 HIT:       7529 MISS:      14524
LLC PREFETCH REQUESTED:          0 ISSUED:          0 USEFUL:          0 USELESS:          0
LLC AVERAGE MISS LATENCY: 528.6 cycles
cpu0_DTLB TOTAL        ACCESS:  133198988 HIT:  131842193 MISS:    1356795
cpu0_DTLB LOAD         ACCESS:  133198988 HIT:  131842193 MISS:    1356795
cpu0_DTLB RFO          ACCESS:          0 HIT:          0 MISS:          0
cpu0_DTLB PREFETCH     ACCESS:          0 HIT:          0 MISS:          0
cpu0_DTLB WRITE        ACCESS:          0 HIT:          0 MISS:          0
cpu0_DTLB TRANSLATION  ACCESS:          0 HIT:          0 MISS:          0
cpu0_DTLB PREFETCH REQUESTED:          0 ISSUED:          0 USEFUL:          0 USELESS:          0
cpu0_DTLB AVERAGE MISS LATENCY: 12.19 cycles
cpu0_ITLB TOTAL        ACCESS:    8992761 HIT:    8783354 MISS:     209407
cpu0_ITLB LOAD         ACCESS:    8992761 HIT:    8783354 MISS:     209407
cpu0_ITLB RFO          ACCESS:          0 HIT:          0 MISS:          0
cpu0_ITLB PREFETCH     ACCESS:          0 HIT:          0 MISS:          0
cpu0_ITLB WRITE        ACCESS:          0 HIT:          0 MISS:          0
cpu0_ITLB TRANSLATION  ACCESS:          0 HIT:          0 MISS:          0
cpu0_ITLB PREFETCH REQUESTED:          0 ISSUED:          0 USEFUL:          0 USELESS:          0
cpu0_ITLB AVERAGE MISS LATENCY: 3.078 cycles
cpu0_L1D TOTAL        ACCESS:  178235458 HIT:  174456062 MISS:    3779396
cpu0_L1D LOAD         ACCESS:   92717384 HIT:   89610784 MISS:    3106600
cpu0_L1D RFO          ACCESS:          0 HIT:          0 MISS:          0
cpu0_L1D PREFETCH     ACCESS:          0 HIT:          0 MISS:          0
cpu0_L1D WRITE        ACCESS:   85489548 HIT:   84843873 MISS:     645675
cpu0_L1D TRANSLATION  ACCESS:      28526 HIT:       1405 MISS:      27121
cpu0_L1D PREFETCH REQUESTED:          0 ISSUED:          0 USEFUL:          0 USELESS:          0
cpu0_L1D AVERAGE MISS LATENCY: 38.25 cycles
cpu0_L1I TOTAL        ACCESS:   10512553 HIT:    8615782 MISS:    1896771
cpu0_L1I LOAD         ACCESS:   10512553 HIT:    8615782 MISS:    1896771
cpu0_L1I RFO          ACCESS:          0 HIT:          0 MISS:          0
cpu0_L1I PREFETCH     ACCESS:          0 HIT:          0 MISS:          0
cpu0_L1I WRITE        ACCESS:          0 HIT:          0 MISS:          0
cpu0_L1I TRANSLATION  ACCESS:          0 HIT:          0 MISS:          0
cpu0_L1I PREFETCH REQUESTED:          0 ISSUED:          0 USEFUL:          0 USELESS:          0
cpu0_L1I AVERAGE MISS LATENCY: 13.07 cycles
cpu0_L2C TOTAL        ACCESS:    3840385 HIT:    3180184 MISS:     660201
cpu0_L2C LOAD         ACCESS:    3103801 HIT:    2516396 MISS:     587405
cpu0_L2C RFO          ACCESS:     194923 HIT:     147591 MISS:      47332
cpu0_L2C PREFETCH     ACCESS:          0 HIT:          0 MISS:          0
cpu0_L2C WRITE        ACCESS:     514627 HIT:     511216 MISS:       3411
cpu0_L2C TRANSLATION  ACCESS:      27034 HIT:       4981 MISS:      22053
cpu0_L2C PREFETCH REQUESTED:          0 ISSUED:          0 USEFUL:          0 USELESS:          0
cpu0_L2C AVERAGE MISS LATENCY: 224.5 cycles
cpu0_STLB TOTAL        ACCESS:    1010295 HIT:     983607 MISS:      26688
cpu0_STLB LOAD         ACCESS:    1010295 HIT:     983607 MISS:      26688
cpu0_STLB RFO          ACCESS:          0 HIT:          0 MISS:          0
cpu0_STLB PREFETCH     ACCESS:          0 HIT:          0 MISS:          0
cpu0_STLB WRITE        ACCESS:          0 HIT:          0 MISS:          0
cpu0_STLB TRANSLATION  ACCESS:          0 HIT:          0 MISS:          0
cpu0_STLB PREFETCH REQUESTED:          0 ISSUED:          0 USEFUL:          0 USELESS:          0
cpu0_STLB AVERAGE MISS LATENCY: 419.7 cycles

DRAM Statistics

Channel 0 RQ ROW_BUFFER_HIT:      42911
  ROW_BUFFER_MISS:     195550
 AVG DBUS CONGESTED CYCLE: 3.809
WQ ROW_BUFFER_HIT: Channel 0 
  ROW_BUFFER_MISS:       7383
  FULL:      26130
