WARNING: physical memory size is smaller than virtual memory size.

*** ChampSim Multicore Out-of-Order Simulator ***
Warmup Instructions: 50000000
Simulation Instructions: 600000000
Number of CPUs: 1
Page size: 4096

CPU 0 Tage branch predictor
Off-chip DRAM Size: 4 GiB Channels: 1 Width: 64-bit Data Race: 3200 MT/s
Heartbeat CPU 0 instructions: 10000001 cycles: 2500318 heartbeat IPC: 3.999 cumulative IPC: 3.999 (Simulation time: 00 hr 01 min 36 sec)
Heartbeat CPU 0 instructions: 20000002 cycles: 5037121 heartbeat IPC: 3.942 cumulative IPC: 3.971 (Simulation time: 00 hr 03 min 56 sec)
Heartbeat CPU 0 instructions: 30000002 cycles: 7537121 heartbeat IPC: 4 cumulative IPC: 3.98 (Simulation time: 00 hr 06 min 45 sec)
Heartbeat CPU 0 instructions: 40000002 cycles: 10037121 heartbeat IPC: 4 cumulative IPC: 3.985 (Simulation time: 00 hr 10 min 13 sec)
Heartbeat CPU 0 instructions: 50000002 cycles: 12537121 heartbeat IPC: 4 cumulative IPC: 3.988 (Simulation time: 00 hr 14 min 24 sec)
Warmup finished CPU 0 instructions: 50000002 cycles: 12537122 cumulative IPC: 3.988 (Simulation time: 00 hr 14 min 24 sec)
Warmup complete CPU 0 instructions: 50000002 cycles: 12537122 cumulative IPC: 3.988 (Simulation time: 00 hr 14 min 24 sec)
Heartbeat CPU 0 instructions: 60000001 cycles: 15552768 heartbeat IPC: 3.316 cumulative IPC: 3.316 (Simulation time: 00 hr 19 min 10 sec)
Heartbeat CPU 0 instructions: 70000004 cycles: 18643915 heartbeat IPC: 3.235 cumulative IPC: 3.275 (Simulation time: 00 hr 23 min 59 sec)
Heartbeat CPU 0 instructions: 80000001 cycles: 21709728 heartbeat IPC: 3.262 cumulative IPC: 3.271 (Simulation time: 00 hr 28 min 45 sec)
Heartbeat CPU 0 instructions: 90000001 cycles: 24668918 heartbeat IPC: 3.379 cumulative IPC: 3.297 (Simulation time: 00 hr 33 min 28 sec)
Heartbeat CPU 0 instructions: 100000000 cycles: 27594922 heartbeat IPC: 3.418 cumulative IPC: 3.321 (Simulation time: 00 hr 38 min 09 sec)
Heartbeat CPU 0 instructions: 110000000 cycles: 30548251 heartbeat IPC: 3.386 cumulative IPC: 3.331 (Simulation time: 00 hr 42 min 49 sec)
Heartbeat CPU 0 instructions: 120000001 cycles: 33533734 heartbeat IPC: 3.35 cumulative IPC: 3.334 (Simulation time: 00 hr 47 min 30 sec)
Heartbeat CPU 0 instructions: 130000001 cycles: 36407131 heartbeat IPC: 3.48 cumulative IPC: 3.351 (Simulation time: 00 hr 52 min 14 sec)
Heartbeat CPU 0 instructions: 140000001 cycles: 39484809 heartbeat IPC: 3.249 cumulative IPC: 3.34 (Simulation time: 00 hr 57 min 00 sec)
Heartbeat CPU 0 instructions: 150000001 cycles: 42513280 heartbeat IPC: 3.302 cumulative IPC: 3.336 (Simulation time: 01 hr 01 min 44 sec)
Heartbeat CPU 0 instructions: 160000004 cycles: 45554092 heartbeat IPC: 3.289 cumulative IPC: 3.332 (Simulation time: 01 hr 06 min 29 sec)
Heartbeat CPU 0 instructions: 170000000 cycles: 52968078 heartbeat IPC: 1.349 cumulative IPC: 2.968 (Simulation time: 01 hr 14 min 05 sec)
Heartbeat CPU 0 instructions: 180000004 cycles: 60710055 heartbeat IPC: 1.292 cumulative IPC: 2.699 (Simulation time: 01 hr 22 min 01 sec)
Heartbeat CPU 0 instructions: 190000001 cycles: 68608065 heartbeat IPC: 1.266 cumulative IPC: 2.497 (Simulation time: 01 hr 30 min 03 sec)
Heartbeat CPU 0 instructions: 200000004 cycles: 71596288 heartbeat IPC: 3.346 cumulative IPC: 2.54 (Simulation time: 01 hr 34 min 47 sec)
Heartbeat CPU 0 instructions: 210000001 cycles: 74573347 heartbeat IPC: 3.359 cumulative IPC: 2.579 (Simulation time: 01 hr 39 min 28 sec)
Heartbeat CPU 0 instructions: 220000000 cycles: 77475857 heartbeat IPC: 3.445 cumulative IPC: 2.618 (Simulation time: 01 hr 44 min 07 sec)
Heartbeat CPU 0 instructions: 230000002 cycles: 80535826 heartbeat IPC: 3.268 cumulative IPC: 2.647 (Simulation time: 01 hr 48 min 55 sec)
Heartbeat CPU 0 instructions: 240000003 cycles: 83587898 heartbeat IPC: 3.276 cumulative IPC: 2.674 (Simulation time: 01 hr 53 min 43 sec)
Heartbeat CPU 0 instructions: 250000000 cycles: 86630836 heartbeat IPC: 3.286 cumulative IPC: 2.699 (Simulation time: 01 hr 58 min 28 sec)
Heartbeat CPU 0 instructions: 260000002 cycles: 89614384 heartbeat IPC: 3.352 cumulative IPC: 2.725 (Simulation time: 02 hr 03 min 11 sec)
Heartbeat CPU 0 instructions: 270000002 cycles: 92539759 heartbeat IPC: 3.418 cumulative IPC: 2.75 (Simulation time: 02 hr 07 min 52 sec)
Heartbeat CPU 0 instructions: 280000002 cycles: 95433393 heartbeat IPC: 3.456 cumulative IPC: 2.775 (Simulation time: 02 hr 12 min 32 sec)
Heartbeat CPU 0 instructions: 290000002 cycles: 98401393 heartbeat IPC: 3.369 cumulative IPC: 2.795 (Simulation time: 02 hr 17 min 16 sec)
Heartbeat CPU 0 instructions: 300000003 cycles: 101315783 heartbeat IPC: 3.431 cumulative IPC: 2.816 (Simulation time: 02 hr 22 min 01 sec)
Heartbeat CPU 0 instructions: 310000001 cycles: 104387745 heartbeat IPC: 3.255 cumulative IPC: 2.831 (Simulation time: 02 hr 26 min 49 sec)
Heartbeat CPU 0 instructions: 320000003 cycles: 107409503 heartbeat IPC: 3.309 cumulative IPC: 2.846 (Simulation time: 02 hr 31 min 35 sec)
Heartbeat CPU 0 instructions: 330000003 cycles: 110421736 heartbeat IPC: 3.32 cumulative IPC: 2.861 (Simulation time: 02 hr 36 min 19 sec)
Heartbeat CPU 0 instructions: 340000000 cycles: 117854940 heartbeat IPC: 1.345 cumulative IPC: 2.754 (Simulation time: 02 hr 43 min 59 sec)
Heartbeat CPU 0 instructions: 350000000 cycles: 125714600 heartbeat IPC: 1.272 cumulative IPC: 2.651 (Simulation time: 02 hr 52 min 03 sec)
Heartbeat CPU 0 instructions: 360000004 cycles: 133576247 heartbeat IPC: 1.272 cumulative IPC: 2.561 (Simulation time: 03 hr 00 min 00 sec)
Heartbeat CPU 0 instructions: 370000000 cycles: 136552938 heartbeat IPC: 3.359 cumulative IPC: 2.58 (Simulation time: 03 hr 04 min 42 sec)
Heartbeat CPU 0 instructions: 380000003 cycles: 139493384 heartbeat IPC: 3.401 cumulative IPC: 2.599 (Simulation time: 03 hr 09 min 25 sec)
Heartbeat CPU 0 instructions: 390000002 cycles: 142482563 heartbeat IPC: 3.345 cumulative IPC: 2.616 (Simulation time: 03 hr 14 min 06 sec)
Heartbeat CPU 0 instructions: 400000004 cycles: 145388014 heartbeat IPC: 3.442 cumulative IPC: 2.635 (Simulation time: 03 hr 18 min 46 sec)
Heartbeat CPU 0 instructions: 410000002 cycles: 148350876 heartbeat IPC: 3.375 cumulative IPC: 2.651 (Simulation time: 03 hr 23 min 27 sec)
Heartbeat CPU 0 instructions: 420000003 cycles: 151463066 heartbeat IPC: 3.213 cumulative IPC: 2.663 (Simulation time: 03 hr 28 min 14 sec)
Heartbeat CPU 0 instructions: 430000001 cycles: 154483429 heartbeat IPC: 3.311 cumulative IPC: 2.677 (Simulation time: 03 hr 32 min 59 sec)
Heartbeat CPU 0 instructions: 440000004 cycles: 157631181 heartbeat IPC: 3.177 cumulative IPC: 2.688 (Simulation time: 03 hr 37 min 47 sec)
Heartbeat CPU 0 instructions: 450000002 cycles: 160568120 heartbeat IPC: 3.405 cumulative IPC: 2.702 (Simulation time: 03 hr 42 min 29 sec)
Heartbeat CPU 0 instructions: 460000000 cycles: 163506926 heartbeat IPC: 3.403 cumulative IPC: 2.716 (Simulation time: 03 hr 47 min 12 sec)
Heartbeat CPU 0 instructions: 470000001 cycles: 166371908 heartbeat IPC: 3.49 cumulative IPC: 2.73 (Simulation time: 03 hr 51 min 50 sec)
Heartbeat CPU 0 instructions: 480000003 cycles: 169419727 heartbeat IPC: 3.281 cumulative IPC: 2.741 (Simulation time: 03 hr 56 min 34 sec)
Heartbeat CPU 0 instructions: 490000004 cycles: 172249039 heartbeat IPC: 3.534 cumulative IPC: 2.755 (Simulation time: 04 hr 01 min 12 sec)
Heartbeat CPU 0 instructions: 500000004 cycles: 175235059 heartbeat IPC: 3.349 cumulative IPC: 2.766 (Simulation time: 04 hr 05 min 53 sec)
Heartbeat CPU 0 instructions: 510000003 cycles: 178249994 heartbeat IPC: 3.317 cumulative IPC: 2.776 (Simulation time: 04 hr 10 min 41 sec)
Heartbeat CPU 0 instructions: 520000001 cycles: 181147691 heartbeat IPC: 3.451 cumulative IPC: 2.787 (Simulation time: 04 hr 15 min 27 sec)
Heartbeat CPU 0 instructions: 530000001 cycles: 184156337 heartbeat IPC: 3.324 cumulative IPC: 2.797 (Simulation time: 04 hr 20 min 16 sec)
Heartbeat CPU 0 instructions: 540000000 cycles: 187122245 heartbeat IPC: 3.372 cumulative IPC: 2.807 (Simulation time: 04 hr 25 min 06 sec)
Heartbeat CPU 0 instructions: 550000001 cycles: 190111216 heartbeat IPC: 3.346 cumulative IPC: 2.816 (Simulation time: 04 hr 29 min 51 sec)
Heartbeat CPU 0 instructions: 560000000 cycles: 193201582 heartbeat IPC: 3.236 cumulative IPC: 2.823 (Simulation time: 04 hr 34 min 40 sec)
Heartbeat CPU 0 instructions: 570000004 cycles: 198138278 heartbeat IPC: 2.026 cumulative IPC: 2.802 (Simulation time: 04 hr 40 min 45 sec)
Heartbeat CPU 0 instructions: 580000003 cycles: 206391610 heartbeat IPC: 1.212 cumulative IPC: 2.734 (Simulation time: 04 hr 49 min 07 sec)
Heartbeat CPU 0 instructions: 590000002 cycles: 216218681 heartbeat IPC: 1.018 cumulative IPC: 2.651 (Simulation time: 04 hr 58 min 28 sec)
Heartbeat CPU 0 instructions: 600000004 cycles: 219259857 heartbeat IPC: 3.288 cumulative IPC: 2.661 (Simulation time: 05 hr 03 min 11 sec)
Heartbeat CPU 0 instructions: 610000002 cycles: 222233254 heartbeat IPC: 3.363 cumulative IPC: 2.671 (Simulation time: 05 hr 07 min 53 sec)
Heartbeat CPU 0 instructions: 620000001 cycles: 225018812 heartbeat IPC: 3.59 cumulative IPC: 2.683 (Simulation time: 05 hr 12 min 30 sec)
Heartbeat CPU 0 instructions: 630000002 cycles: 228006423 heartbeat IPC: 3.347 cumulative IPC: 2.692 (Simulation time: 05 hr 17 min 27 sec)
Heartbeat CPU 0 instructions: 640000004 cycles: 230957653 heartbeat IPC: 3.388 cumulative IPC: 2.701 (Simulation time: 05 hr 22 min 19 sec)
Heartbeat CPU 0 instructions: 650000000 cycles: 233713216 heartbeat IPC: 3.629 cumulative IPC: 2.713 (Simulation time: 05 hr 27 min 05 sec)
Simulation finished CPU 0 instructions: 600000001 cycles: 221176096 cumulative IPC: 2.713 (Simulation time: 05 hr 27 min 05 sec)
Simulation complete CPU 0 instructions: 600000001 cycles: 221176096 cumulative IPC: 2.713 (Simulation time: 05 hr 27 min 05 sec)

ChampSim completed all CPUs

=== Simulation ===
CPU 0 runs traces/400.perlbench-41B.champsimtrace.xz
Region of Interest Statistics

CPU 0 cumulative IPC: 2.713 instructions: 600000001 cycles: 221176096
CPU 0 Branch Prediction Accuracy: 99.19% MPKI: 1.684 Average ROB Occupancy at Mispredict: 101.8
Branch type MPKI
BRANCH_DIRECT_JUMP: 0.0123
BRANCH_INDIRECT: 0.323
BRANCH_CONDITIONAL: 1.14
BRANCH_DIRECT_CALL: 0.0043
BRANCH_INDIRECT_CALL: 0.2
BRANCH_RETURN: 0.00828

LLC TOTAL        ACCESS:     938093 HIT:     540989 MISS:     397104
LLC LOAD         ACCESS:     401113 HIT:     218358 MISS:     182755
LLC RFO          ACCESS:      32402 HIT:      18931 MISS:      13471
LLC PREFETCH     ACCESS:     401113 HIT:     210021 MISS:     191092
LLC WRITE        ACCESS:      84475 HIT:      84216 MISS:        259
LLC TRANSLATION  ACCESS:      18990 HIT:       9463 MISS:       9527
LLC PREFETCH REQUESTED:     401113 ISSUED:     401113 USEFUL:      71195 USELESS:      70006
LLC AVERAGE MISS LATENCY: 647.6 cycles
cpu0_DTLB TOTAL        ACCESS:  129776257 HIT:  129072937 MISS:     703320
cpu0_DTLB LOAD         ACCESS:  129776257 HIT:  129072937 MISS:     703320
cpu0_DTLB RFO          ACCESS:          0 HIT:          0 MISS:          0
cpu0_DTLB PREFETCH     ACCESS:          0 HIT:          0 MISS:          0
cpu0_DTLB WRITE        ACCESS:          0 HIT:          0 MISS:          0
cpu0_DTLB TRANSLATION  ACCESS:          0 HIT:          0 MISS:          0
cpu0_DTLB PREFETCH REQUESTED:          0 ISSUED:          0 USEFUL:          0 USELESS:          0
cpu0_DTLB AVERAGE MISS LATENCY: 15.61 cycles
cpu0_ITLB TOTAL        ACCESS:    4869286 HIT:    4807098 MISS:      62188
cpu0_ITLB LOAD         ACCESS:    4869286 HIT:    4807098 MISS:      62188
cpu0_ITLB RFO          ACCESS:          0 HIT:          0 MISS:          0
cpu0_ITLB PREFETCH     ACCESS:          0 HIT:          0 MISS:          0
cpu0_ITLB WRITE        ACCESS:          0 HIT:          0 MISS:          0
cpu0_ITLB TRANSLATION  ACCESS:          0 HIT:          0 MISS:          0
cpu0_ITLB PREFETCH REQUESTED:          0 ISSUED:          0 USEFUL:          0 USELESS:          0
cpu0_ITLB AVERAGE MISS LATENCY: 6.913 cycles
cpu0_L1D TOTAL        ACCESS:  174369875 HIT:  172568535 MISS:    1801340
cpu0_L1D LOAD         ACCESS:   91348454 HIT:   89944893 MISS:    1403561
cpu0_L1D RFO          ACCESS:          0 HIT:          0 MISS:          0
cpu0_L1D PREFETCH     ACCESS:          0 HIT:          0 MISS:          0
cpu0_L1D WRITE        ACCESS:   82996958 HIT:   82622572 MISS:     374386
cpu0_L1D TRANSLATION  ACCESS:      24463 HIT:       1070 MISS:      23393
cpu0_L1D PREFETCH REQUESTED:          0 ISSUED:          0 USEFUL:          0 USELESS:          0
cpu0_L1D AVERAGE MISS LATENCY: 84.93 cycles
cpu0_L1I TOTAL        ACCESS:    5649017 HIT:    4844866 MISS:     804151
cpu0_L1I LOAD         ACCESS:    5649017 HIT:    4844866 MISS:     804151
cpu0_L1I RFO          ACCESS:          0 HIT:          0 MISS:          0
cpu0_L1I PREFETCH     ACCESS:          0 HIT:          0 MISS:          0
cpu0_L1I WRITE        ACCESS:          0 HIT:          0 MISS:          0
cpu0_L1I TRANSLATION  ACCESS:          0 HIT:          0 MISS:          0
cpu0_L1I PREFETCH REQUESTED:          0 ISSUED:          0 USEFUL:          0 USELESS:          0
cpu0_L1I AVERAGE MISS LATENCY: 11.07 cycles
cpu0_L2C TOTAL        ACCESS:    1667916 HIT:    1213645 MISS:     454271
cpu0_L2C LOAD         ACCESS:    1315214 HIT:     914101 MISS:     401113
cpu0_L2C RFO          ACCESS:      89611 HIT:      57209 MISS:      32402
cpu0_L2C PREFETCH     ACCESS:          0 HIT:          0 MISS:          0
cpu0_L2C WRITE        ACCESS:     239774 HIT:     238008 MISS:       1766
cpu0_L2C TRANSLATION  ACCESS:      23317 HIT:       4327 MISS:      18990
cpu0_L2C PREFETCH REQUESTED:          0 ISSUED:          0 USEFUL:          0 USELESS:          0
cpu0_L2C AVERAGE MISS LATENCY: 351.7 cycles
cpu0_STLB TOTAL        ACCESS:     508787 HIT:     486001 MISS:      22786
cpu0_STLB LOAD         ACCESS:     508787 HIT:     486001 MISS:      22786
cpu0_STLB RFO          ACCESS:          0 HIT:          0 MISS:          0
cpu0_STLB PREFETCH     ACCESS:          0 HIT:          0 MISS:          0
cpu0_STLB WRITE        ACCESS:          0 HIT:          0 MISS:          0
cpu0_STLB TRANSLATION  ACCESS:          0 HIT:          0 MISS:          0
cpu0_STLB PREFETCH REQUESTED:          0 ISSUED:          0 USEFUL:          0 USELESS:          0
cpu0_STLB AVERAGE MISS LATENCY: 375.9 cycles

DRAM Statistics

Channel 0 RQ ROW_BUFFER_HIT:      67738
  ROW_BUFFER_MISS:     255853
 AVG DBUS CONGESTED CYCLE: 3.896
WQ ROW_BUFFER_HIT: Channel 0 
  ROW_BUFFER_MISS:       3837
  FULL:      34294
