WARNING: physical memory size is smaller than virtual memory size.

*** ChampSim Multicore Out-of-Order Simulator ***
Warmup Instructions: 50000000
Simulation Instructions: 600000000
Number of CPUs: 1
Page size: 4096

Off-chip DRAM Size: 4 GiB Channels: 1 Width: 64-bit Data Race: 3200 MT/s
Heartbeat CPU 0 instructions: 10000001 cycles: 2500318 heartbeat IPC: 3.999 cumulative IPC: 3.999 (Simulation time: 00 hr 00 min 41 sec)
Heartbeat CPU 0 instructions: 20000002 cycles: 5037121 heartbeat IPC: 3.942 cumulative IPC: 3.971 (Simulation time: 00 hr 01 min 44 sec)
Heartbeat CPU 0 instructions: 30000002 cycles: 7537121 heartbeat IPC: 4 cumulative IPC: 3.98 (Simulation time: 00 hr 03 min 00 sec)
Heartbeat CPU 0 instructions: 40000002 cycles: 10037121 heartbeat IPC: 4 cumulative IPC: 3.985 (Simulation time: 00 hr 04 min 47 sec)
Heartbeat CPU 0 instructions: 50000002 cycles: 12537121 heartbeat IPC: 4 cumulative IPC: 3.988 (Simulation time: 00 hr 07 min 00 sec)
Warmup finished CPU 0 instructions: 50000002 cycles: 12537122 cumulative IPC: 3.988 (Simulation time: 00 hr 07 min 00 sec)
Warmup complete CPU 0 instructions: 50000002 cycles: 12537122 cumulative IPC: 3.988 (Simulation time: 00 hr 07 min 00 sec)
Heartbeat CPU 0 instructions: 60000000 cycles: 17134537 heartbeat IPC: 2.175 cumulative IPC: 2.175 (Simulation time: 00 hr 11 min 31 sec)
Heartbeat CPU 0 instructions: 70000004 cycles: 21401088 heartbeat IPC: 2.344 cumulative IPC: 2.256 (Simulation time: 00 hr 16 min 38 sec)
Heartbeat CPU 0 instructions: 80000001 cycles: 25983074 heartbeat IPC: 2.182 cumulative IPC: 2.231 (Simulation time: 00 hr 21 min 43 sec)
Heartbeat CPU 0 instructions: 90000001 cycles: 30092101 heartbeat IPC: 2.434 cumulative IPC: 2.279 (Simulation time: 00 hr 26 min 33 sec)
Heartbeat CPU 0 instructions: 100000000 cycles: 34129954 heartbeat IPC: 2.477 cumulative IPC: 2.316 (Simulation time: 00 hr 31 min 21 sec)
Heartbeat CPU 0 instructions: 110000000 cycles: 38352450 heartbeat IPC: 2.368 cumulative IPC: 2.324 (Simulation time: 00 hr 36 min 09 sec)
Heartbeat CPU 0 instructions: 120000001 cycles: 42350334 heartbeat IPC: 2.501 cumulative IPC: 2.348 (Simulation time: 00 hr 40 min 51 sec)
Heartbeat CPU 0 instructions: 130000001 cycles: 46072311 heartbeat IPC: 2.687 cumulative IPC: 2.386 (Simulation time: 00 hr 45 min 26 sec)
Heartbeat CPU 0 instructions: 140000001 cycles: 50229451 heartbeat IPC: 2.405 cumulative IPC: 2.388 (Simulation time: 00 hr 50 min 14 sec)
Heartbeat CPU 0 instructions: 150000001 cycles: 54415828 heartbeat IPC: 2.389 cumulative IPC: 2.388 (Simulation time: 00 hr 55 min 07 sec)
Heartbeat CPU 0 instructions: 160000004 cycles: 58824355 heartbeat IPC: 2.268 cumulative IPC: 2.376 (Simulation time: 01 hr 00 min 06 sec)
Heartbeat CPU 0 instructions: 170000000 cycles: 66911623 heartbeat IPC: 1.237 cumulative IPC: 2.207 (Simulation time: 01 hr 07 min 30 sec)
Heartbeat CPU 0 instructions: 180000004 cycles: 75733753 heartbeat IPC: 1.134 cumulative IPC: 2.057 (Simulation time: 01 hr 15 min 33 sec)
Heartbeat CPU 0 instructions: 190000001 cycles: 85091200 heartbeat IPC: 1.069 cumulative IPC: 1.93 (Simulation time: 01 hr 23 min 54 sec)
Heartbeat CPU 0 instructions: 200000004 cycles: 88832763 heartbeat IPC: 2.673 cumulative IPC: 1.966 (Simulation time: 01 hr 28 min 28 sec)
Heartbeat CPU 0 instructions: 210000001 cycles: 92726632 heartbeat IPC: 2.568 cumulative IPC: 1.995 (Simulation time: 01 hr 33 min 14 sec)
Heartbeat CPU 0 instructions: 220000000 cycles: 96675881 heartbeat IPC: 2.532 cumulative IPC: 2.02 (Simulation time: 01 hr 37 min 54 sec)
Heartbeat CPU 0 instructions: 230000002 cycles: 101306080 heartbeat IPC: 2.16 cumulative IPC: 2.028 (Simulation time: 01 hr 42 min 56 sec)
Heartbeat CPU 0 instructions: 240000000 cycles: 105478670 heartbeat IPC: 2.397 cumulative IPC: 2.044 (Simulation time: 01 hr 47 min 48 sec)
Heartbeat CPU 0 instructions: 250000000 cycles: 109766337 heartbeat IPC: 2.332 cumulative IPC: 2.057 (Simulation time: 01 hr 52 min 39 sec)
Heartbeat CPU 0 instructions: 260000000 cycles: 113904711 heartbeat IPC: 2.416 cumulative IPC: 2.072 (Simulation time: 01 hr 57 min 27 sec)
Heartbeat CPU 0 instructions: 270000002 cycles: 117735527 heartbeat IPC: 2.61 cumulative IPC: 2.091 (Simulation time: 02 hr 02 min 05 sec)
Heartbeat CPU 0 instructions: 280000002 cycles: 121874765 heartbeat IPC: 2.416 cumulative IPC: 2.104 (Simulation time: 02 hr 06 min 57 sec)
Heartbeat CPU 0 instructions: 290000001 cycles: 125757351 heartbeat IPC: 2.576 cumulative IPC: 2.12 (Simulation time: 02 hr 11 min 32 sec)
Heartbeat CPU 0 instructions: 300000003 cycles: 129546661 heartbeat IPC: 2.639 cumulative IPC: 2.137 (Simulation time: 02 hr 16 min 14 sec)
Heartbeat CPU 0 instructions: 310000001 cycles: 133637324 heartbeat IPC: 2.445 cumulative IPC: 2.147 (Simulation time: 02 hr 21 min 05 sec)
Heartbeat CPU 0 instructions: 320000003 cycles: 137700539 heartbeat IPC: 2.461 cumulative IPC: 2.157 (Simulation time: 02 hr 25 min 53 sec)
Heartbeat CPU 0 instructions: 330000003 cycles: 142075506 heartbeat IPC: 2.286 cumulative IPC: 2.162 (Simulation time: 02 hr 31 min 05 sec)
Heartbeat CPU 0 instructions: 340000000 cycles: 150904150 heartbeat IPC: 1.133 cumulative IPC: 2.096 (Simulation time: 02 hr 39 min 02 sec)
Heartbeat CPU 0 instructions: 350000000 cycles: 160827892 heartbeat IPC: 1.008 cumulative IPC: 2.023 (Simulation time: 02 hr 47 min 45 sec)
Heartbeat CPU 0 instructions: 360000004 cycles: 169947795 heartbeat IPC: 1.097 cumulative IPC: 1.969 (Simulation time: 02 hr 55 min 57 sec)
Heartbeat CPU 0 instructions: 370000000 cycles: 173342433 heartbeat IPC: 2.946 cumulative IPC: 1.99 (Simulation time: 03 hr 00 min 21 sec)
Heartbeat CPU 0 instructions: 380000001 cycles: 176730456 heartbeat IPC: 2.952 cumulative IPC: 2.01 (Simulation time: 03 hr 04 min 52 sec)
Heartbeat CPU 0 instructions: 390000004 cycles: 180445745 heartbeat IPC: 2.692 cumulative IPC: 2.025 (Simulation time: 03 hr 09 min 29 sec)
Heartbeat CPU 0 instructions: 400000004 cycles: 184240294 heartbeat IPC: 2.635 cumulative IPC: 2.038 (Simulation time: 03 hr 14 min 03 sec)
Heartbeat CPU 0 instructions: 410000001 cycles: 187863273 heartbeat IPC: 2.76 cumulative IPC: 2.053 (Simulation time: 03 hr 18 min 35 sec)
Heartbeat CPU 0 instructions: 420000003 cycles: 191817810 heartbeat IPC: 2.529 cumulative IPC: 2.064 (Simulation time: 03 hr 23 min 20 sec)
Heartbeat CPU 0 instructions: 430000001 cycles: 195451080 heartbeat IPC: 2.752 cumulative IPC: 2.077 (Simulation time: 03 hr 27 min 54 sec)
Heartbeat CPU 0 instructions: 440000004 cycles: 199494105 heartbeat IPC: 2.473 cumulative IPC: 2.086 (Simulation time: 03 hr 32 min 42 sec)
Heartbeat CPU 0 instructions: 450000002 cycles: 203195164 heartbeat IPC: 2.702 cumulative IPC: 2.098 (Simulation time: 03 hr 37 min 16 sec)
Heartbeat CPU 0 instructions: 460000000 cycles: 206825861 heartbeat IPC: 2.754 cumulative IPC: 2.11 (Simulation time: 03 hr 41 min 49 sec)
Heartbeat CPU 0 instructions: 470000000 cycles: 210263665 heartbeat IPC: 2.909 cumulative IPC: 2.124 (Simulation time: 03 hr 46 min 19 sec)
Heartbeat CPU 0 instructions: 480000003 cycles: 214043982 heartbeat IPC: 2.645 cumulative IPC: 2.134 (Simulation time: 03 hr 50 min 56 sec)
Heartbeat CPU 0 instructions: 490000000 cycles: 217652122 heartbeat IPC: 2.772 cumulative IPC: 2.145 (Simulation time: 03 hr 55 min 27 sec)
Heartbeat CPU 0 instructions: 500000000 cycles: 221338288 heartbeat IPC: 2.713 cumulative IPC: 2.155 (Simulation time: 04 hr 00 min 01 sec)
Heartbeat CPU 0 instructions: 510000003 cycles: 224950893 heartbeat IPC: 2.768 cumulative IPC: 2.166 (Simulation time: 04 hr 04 min 38 sec)
Heartbeat CPU 0 instructions: 520000001 cycles: 228334696 heartbeat IPC: 2.955 cumulative IPC: 2.178 (Simulation time: 04 hr 09 min 10 sec)
Heartbeat CPU 0 instructions: 530000002 cycles: 231973893 heartbeat IPC: 2.748 cumulative IPC: 2.187 (Simulation time: 04 hr 13 min 41 sec)
Heartbeat CPU 0 instructions: 540000000 cycles: 235482073 heartbeat IPC: 2.85 cumulative IPC: 2.198 (Simulation time: 04 hr 18 min 06 sec)
Heartbeat CPU 0 instructions: 550000001 cycles: 239163380 heartbeat IPC: 2.716 cumulative IPC: 2.206 (Simulation time: 04 hr 22 min 39 sec)
Heartbeat CPU 0 instructions: 560000000 cycles: 243095515 heartbeat IPC: 2.543 cumulative IPC: 2.212 (Simulation time: 04 hr 27 min 24 sec)
Heartbeat CPU 0 instructions: 570000004 cycles: 248923833 heartbeat IPC: 1.716 cumulative IPC: 2.2 (Simulation time: 04 hr 33 min 22 sec)
Heartbeat CPU 0 instructions: 580000003 cycles: 259133769 heartbeat IPC: 0.9794 cumulative IPC: 2.149 (Simulation time: 04 hr 42 min 14 sec)
Heartbeat CPU 0 instructions: 590000002 cycles: 270697359 heartbeat IPC: 0.8648 cumulative IPC: 2.092 (Simulation time: 04 hr 52 min 03 sec)
Heartbeat CPU 0 instructions: 600000000 cycles: 274375088 heartbeat IPC: 2.719 cumulative IPC: 2.101 (Simulation time: 04 hr 56 min 34 sec)
Heartbeat CPU 0 instructions: 610000000 cycles: 278203428 heartbeat IPC: 2.612 cumulative IPC: 2.108 (Simulation time: 05 hr 01 min 08 sec)
Heartbeat CPU 0 instructions: 620000001 cycles: 281619614 heartbeat IPC: 2.927 cumulative IPC: 2.118 (Simulation time: 05 hr 05 min 37 sec)
Heartbeat CPU 0 instructions: 630000002 cycles: 285872751 heartbeat IPC: 2.351 cumulative IPC: 2.122 (Simulation time: 05 hr 10 min 27 sec)
Heartbeat CPU 0 instructions: 640000001 cycles: 289759571 heartbeat IPC: 2.573 cumulative IPC: 2.128 (Simulation time: 05 hr 15 min 07 sec)
Heartbeat CPU 0 instructions: 650000000 cycles: 293505014 heartbeat IPC: 2.67 cumulative IPC: 2.135 (Simulation time: 05 hr 19 min 40 sec)
Simulation finished CPU 0 instructions: 600000001 cycles: 280967894 cumulative IPC: 2.135 (Simulation time: 05 hr 19 min 40 sec)
Simulation complete CPU 0 instructions: 600000001 cycles: 280967894 cumulative IPC: 2.135 (Simulation time: 05 hr 19 min 40 sec)

ChampSim completed all CPUs

=== Simulation ===
CPU 0 runs traces/400.perlbench-41B.champsimtrace.xz
Region of Interest Statistics

CPU 0 cumulative IPC: 2.135 instructions: 600000001 cycles: 280967894
CPU 0 Branch Prediction Accuracy: 96.56% MPKI: 7.112 Average ROB Occupancy at Mispredict: 47.09
Branch type MPKI
BRANCH_DIRECT_JUMP: 0.0123
BRANCH_INDIRECT: 0.323
BRANCH_CONDITIONAL: 6.56
BRANCH_DIRECT_CALL: 0.0043
BRANCH_INDIRECT_CALL: 0.2
BRANCH_RETURN: 0.00828

LLC TOTAL        ACCESS:     936847 HIT:     606641 MISS:     330206
LLC LOAD         ACCESS:     400288 HIT:     252843 MISS:     147445
LLC RFO          ACCESS:      32513 HIT:      21094 MISS:      11419
LLC PREFETCH     ACCESS:     400288 HIT:     238992 MISS:     161296
LLC WRITE        ACCESS:      84722 HIT:      83827 MISS:        895
LLC TRANSLATION  ACCESS:      19036 HIT:       9885 MISS:       9151
LLC PREFETCH REQUESTED:     400288 ISSUED:     400288 USEFUL:      47712 USELESS:      75337
LLC AVERAGE MISS LATENCY: 565.3 cycles
cpu0_DTLB TOTAL        ACCESS:  141912215 HIT:  141225676 MISS:     686539
cpu0_DTLB LOAD         ACCESS:  141912215 HIT:  141225676 MISS:     686539
cpu0_DTLB RFO          ACCESS:          0 HIT:          0 MISS:          0
cpu0_DTLB PREFETCH     ACCESS:          0 HIT:          0 MISS:          0
cpu0_DTLB WRITE        ACCESS:          0 HIT:          0 MISS:          0
cpu0_DTLB TRANSLATION  ACCESS:          0 HIT:          0 MISS:          0
cpu0_DTLB PREFETCH REQUESTED:          0 ISSUED:          0 USEFUL:          0 USELESS:          0
cpu0_DTLB AVERAGE MISS LATENCY: 14.31 cycles
cpu0_ITLB TOTAL        ACCESS:    4857302 HIT:    4804159 MISS:      53143
cpu0_ITLB LOAD         ACCESS:    4857302 HIT:    4804159 MISS:      53143
cpu0_ITLB RFO          ACCESS:          0 HIT:          0 MISS:          0
cpu0_ITLB PREFETCH     ACCESS:          0 HIT:          0 MISS:          0
cpu0_ITLB WRITE        ACCESS:          0 HIT:          0 MISS:          0
cpu0_ITLB TRANSLATION  ACCESS:          0 HIT:          0 MISS:          0
cpu0_ITLB PREFETCH REQUESTED:          0 ISSUED:          0 USEFUL:          0 USELESS:          0
cpu0_ITLB AVERAGE MISS LATENCY: 7.721 cycles
cpu0_L1D TOTAL        ACCESS:  188580379 HIT:  186859782 MISS:    1720597
cpu0_L1D LOAD         ACCESS:  105213609 HIT:  103869571 MISS:    1344038
cpu0_L1D RFO          ACCESS:          0 HIT:          0 MISS:          0
cpu0_L1D PREFETCH     ACCESS:          0 HIT:          0 MISS:          0
cpu0_L1D WRITE        ACCESS:   83342312 HIT:   82989145 MISS:     353167
cpu0_L1D TRANSLATION  ACCESS:      24458 HIT:       1066 MISS:      23392
cpu0_L1D PREFETCH REQUESTED:          0 ISSUED:          0 USEFUL:          0 USELESS:          0
cpu0_L1D AVERAGE MISS LATENCY: 67.16 cycles
cpu0_L1I TOTAL        ACCESS:    5595376 HIT:    4851934 MISS:     743442
cpu0_L1I LOAD         ACCESS:    5595376 HIT:    4851934 MISS:     743442
cpu0_L1I RFO          ACCESS:          0 HIT:          0 MISS:          0
cpu0_L1I PREFETCH     ACCESS:          0 HIT:          0 MISS:          0
cpu0_L1I WRITE        ACCESS:          0 HIT:          0 MISS:          0
cpu0_L1I TRANSLATION  ACCESS:          0 HIT:          0 MISS:          0
cpu0_L1I PREFETCH REQUESTED:          0 ISSUED:          0 USEFUL:          0 USELESS:          0
cpu0_L1I AVERAGE MISS LATENCY: 11.09 cycles
cpu0_L2C TOTAL        ACCESS:    1665786 HIT:    1212197 MISS:     453589
cpu0_L2C LOAD         ACCESS:    1315980 HIT:     915692 MISS:     400288
cpu0_L2C RFO          ACCESS:      88326 HIT:      55813 MISS:      32513
cpu0_L2C PREFETCH     ACCESS:          0 HIT:          0 MISS:          0
cpu0_L2C WRITE        ACCESS:     238152 HIT:     236400 MISS:       1752
cpu0_L2C TRANSLATION  ACCESS:      23328 HIT:       4292 MISS:      19036
cpu0_L2C PREFETCH REQUESTED:          0 ISSUED:          0 USEFUL:          0 USELESS:          0
cpu0_L2C AVERAGE MISS LATENCY: 251.7 cycles
cpu0_STLB TOTAL        ACCESS:     507337 HIT:     484543 MISS:      22794
cpu0_STLB LOAD         ACCESS:     507337 HIT:     484543 MISS:      22794
cpu0_STLB RFO          ACCESS:          0 HIT:          0 MISS:          0
cpu0_STLB PREFETCH     ACCESS:          0 HIT:          0 MISS:          0
cpu0_STLB WRITE        ACCESS:          0 HIT:          0 MISS:          0
cpu0_STLB TRANSLATION  ACCESS:          0 HIT:          0 MISS:          0
cpu0_STLB PREFETCH REQUESTED:          0 ISSUED:          0 USEFUL:          0 USELESS:          0
cpu0_STLB AVERAGE MISS LATENCY: 309.2 cycles

DRAM Statistics

Channel 0 RQ ROW_BUFFER_HIT:      49984
  ROW_BUFFER_MISS:     229518
 AVG DBUS CONGESTED CYCLE: 3.867
WQ ROW_BUFFER_HIT: Channel 0 
  ROW_BUFFER_MISS:       5782
  FULL:      25203
