WARNING: physical memory size is smaller than virtual memory size.

*** ChampSim Multicore Out-of-Order Simulator ***
Warmup Instructions: 50000000
Simulation Instructions: 600000000
Number of CPUs: 1
Page size: 4096

CPU 0 Tage branch predictor
Off-chip DRAM Size: 4 GiB Channels: 1 Width: 64-bit Data Race: 3200 MT/s
Heartbeat CPU 0 instructions: 10000000 cycles: 2500061 heartbeat IPC: 4 cumulative IPC: 4 (Simulation time: 00 hr 04 min 11 sec)
Heartbeat CPU 0 instructions: 20000000 cycles: 5000061 heartbeat IPC: 4 cumulative IPC: 4 (Simulation time: 00 hr 08 min 22 sec)
Heartbeat CPU 0 instructions: 30000000 cycles: 7500061 heartbeat IPC: 4 cumulative IPC: 4 (Simulation time: 00 hr 12 min 22 sec)
Heartbeat CPU 0 instructions: 40000000 cycles: 10000061 heartbeat IPC: 4 cumulative IPC: 4 (Simulation time: 00 hr 16 min 31 sec)
Heartbeat CPU 0 instructions: 50000000 cycles: 12500061 heartbeat IPC: 4 cumulative IPC: 4 (Simulation time: 00 hr 20 min 32 sec)
Warmup finished CPU 0 instructions: 50000000 cycles: 12500062 cumulative IPC: 4 (Simulation time: 00 hr 20 min 32 sec)
Warmup complete CPU 0 instructions: 50000000 cycles: 12500062 cumulative IPC: 4 (Simulation time: 00 hr 20 min 32 sec)
Heartbeat CPU 0 instructions: 60000004 cycles: 15504574 heartbeat IPC: 3.328 cumulative IPC: 3.328 (Simulation time: 00 hr 25 min 21 sec)
Heartbeat CPU 0 instructions: 70000003 cycles: 18375027 heartbeat IPC: 3.484 cumulative IPC: 3.404 (Simulation time: 00 hr 29 min 57 sec)
Heartbeat CPU 0 instructions: 80000002 cycles: 21385455 heartbeat IPC: 3.322 cumulative IPC: 3.376 (Simulation time: 00 hr 34 min 50 sec)
Heartbeat CPU 0 instructions: 90000000 cycles: 24106445 heartbeat IPC: 3.675 cumulative IPC: 3.446 (Simulation time: 00 hr 39 min 21 sec)
Heartbeat CPU 0 instructions: 100000003 cycles: 26861573 heartbeat IPC: 3.63 cumulative IPC: 3.482 (Simulation time: 00 hr 43 min 55 sec)
Heartbeat CPU 0 instructions: 110000001 cycles: 29760716 heartbeat IPC: 3.449 cumulative IPC: 3.476 (Simulation time: 00 hr 48 min 30 sec)
Heartbeat CPU 0 instructions: 120000001 cycles: 32476957 heartbeat IPC: 3.682 cumulative IPC: 3.504 (Simulation time: 00 hr 53 min 01 sec)
Heartbeat CPU 0 instructions: 130000003 cycles: 35373828 heartbeat IPC: 3.452 cumulative IPC: 3.497 (Simulation time: 00 hr 57 min 36 sec)
Heartbeat CPU 0 instructions: 140000002 cycles: 38209923 heartbeat IPC: 3.526 cumulative IPC: 3.501 (Simulation time: 01 hr 02 min 12 sec)
Heartbeat CPU 0 instructions: 150000001 cycles: 40979169 heartbeat IPC: 3.611 cumulative IPC: 3.511 (Simulation time: 01 hr 06 min 42 sec)
Heartbeat CPU 0 instructions: 160000000 cycles: 43896422 heartbeat IPC: 3.428 cumulative IPC: 3.504 (Simulation time: 01 hr 11 min 17 sec)
Heartbeat CPU 0 instructions: 170000001 cycles: 46819705 heartbeat IPC: 3.421 cumulative IPC: 3.497 (Simulation time: 01 hr 15 min 58 sec)
Heartbeat CPU 0 instructions: 180000000 cycles: 49612091 heartbeat IPC: 3.581 cumulative IPC: 3.503 (Simulation time: 01 hr 20 min 32 sec)
Heartbeat CPU 0 instructions: 190000002 cycles: 52318430 heartbeat IPC: 3.695 cumulative IPC: 3.516 (Simulation time: 01 hr 25 min 09 sec)
Heartbeat CPU 0 instructions: 200000002 cycles: 55141199 heartbeat IPC: 3.543 cumulative IPC: 3.518 (Simulation time: 01 hr 29 min 49 sec)
Heartbeat CPU 0 instructions: 210000000 cycles: 58032005 heartbeat IPC: 3.459 cumulative IPC: 3.514 (Simulation time: 01 hr 34 min 26 sec)
Heartbeat CPU 0 instructions: 220000001 cycles: 60781438 heartbeat IPC: 3.637 cumulative IPC: 3.521 (Simulation time: 01 hr 38 min 59 sec)
Heartbeat CPU 0 instructions: 230000002 cycles: 63668564 heartbeat IPC: 3.464 cumulative IPC: 3.518 (Simulation time: 01 hr 43 min 38 sec)
Heartbeat CPU 0 instructions: 240000004 cycles: 66619176 heartbeat IPC: 3.389 cumulative IPC: 3.511 (Simulation time: 01 hr 48 min 17 sec)
Heartbeat CPU 0 instructions: 250000003 cycles: 69509596 heartbeat IPC: 3.46 cumulative IPC: 3.508 (Simulation time: 01 hr 52 min 54 sec)
Heartbeat CPU 0 instructions: 260000001 cycles: 72292418 heartbeat IPC: 3.593 cumulative IPC: 3.512 (Simulation time: 01 hr 57 min 26 sec)
Heartbeat CPU 0 instructions: 270000002 cycles: 78010768 heartbeat IPC: 1.749 cumulative IPC: 3.358 (Simulation time: 02 hr 03 min 56 sec)
Heartbeat CPU 0 instructions: 280000000 cycles: 86528456 heartbeat IPC: 1.174 cumulative IPC: 3.107 (Simulation time: 02 hr 12 min 15 sec)
Heartbeat CPU 0 instructions: 290000000 cycles: 94203389 heartbeat IPC: 1.303 cumulative IPC: 2.937 (Simulation time: 02 hr 20 min 12 sec)
Heartbeat CPU 0 instructions: 300000003 cycles: 99524879 heartbeat IPC: 1.879 cumulative IPC: 2.873 (Simulation time: 02 hr 26 min 48 sec)
Heartbeat CPU 0 instructions: 310000001 cycles: 107528139 heartbeat IPC: 1.249 cumulative IPC: 2.736 (Simulation time: 02 hr 35 min 07 sec)
Heartbeat CPU 0 instructions: 320000004 cycles: 111341188 heartbeat IPC: 2.623 cumulative IPC: 2.732 (Simulation time: 02 hr 40 min 37 sec)
Heartbeat CPU 0 instructions: 330000000 cycles: 114489255 heartbeat IPC: 3.177 cumulative IPC: 2.745 (Simulation time: 02 hr 45 min 31 sec)
Heartbeat CPU 0 instructions: 340000001 cycles: 117599641 heartbeat IPC: 3.215 cumulative IPC: 2.759 (Simulation time: 02 hr 50 min 23 sec)
Heartbeat CPU 0 instructions: 350000000 cycles: 120834284 heartbeat IPC: 3.092 cumulative IPC: 2.769 (Simulation time: 02 hr 55 min 18 sec)
Heartbeat CPU 0 instructions: 360000004 cycles: 123831080 heartbeat IPC: 3.337 cumulative IPC: 2.784 (Simulation time: 03 hr 00 min 07 sec)
Heartbeat CPU 0 instructions: 370000001 cycles: 126769112 heartbeat IPC: 3.404 cumulative IPC: 2.8 (Simulation time: 03 hr 04 min 50 sec)
Heartbeat CPU 0 instructions: 380000004 cycles: 129693612 heartbeat IPC: 3.419 cumulative IPC: 2.816 (Simulation time: 03 hr 09 min 34 sec)
Heartbeat CPU 0 instructions: 390000002 cycles: 132650754 heartbeat IPC: 3.382 cumulative IPC: 2.83 (Simulation time: 03 hr 14 min 18 sec)
Heartbeat CPU 0 instructions: 400000000 cycles: 135637543 heartbeat IPC: 3.348 cumulative IPC: 2.842 (Simulation time: 03 hr 19 min 04 sec)
Heartbeat CPU 0 instructions: 410000000 cycles: 140237325 heartbeat IPC: 2.174 cumulative IPC: 2.818 (Simulation time: 03 hr 24 min 56 sec)
Heartbeat CPU 0 instructions: 420000003 cycles: 145809901 heartbeat IPC: 1.795 cumulative IPC: 2.775 (Simulation time: 03 hr 31 min 36 sec)
Heartbeat CPU 0 instructions: 430000000 cycles: 150781536 heartbeat IPC: 2.011 cumulative IPC: 2.748 (Simulation time: 03 hr 38 min 08 sec)
Heartbeat CPU 0 instructions: 440000004 cycles: 155621479 heartbeat IPC: 2.066 cumulative IPC: 2.725 (Simulation time: 03 hr 44 min 23 sec)
Heartbeat CPU 0 instructions: 450000003 cycles: 160285798 heartbeat IPC: 2.144 cumulative IPC: 2.707 (Simulation time: 03 hr 50 min 32 sec)
Heartbeat CPU 0 instructions: 460000002 cycles: 167610794 heartbeat IPC: 1.365 cumulative IPC: 2.643 (Simulation time: 03 hr 58 min 16 sec)
Heartbeat CPU 0 instructions: 470000003 cycles: 174501576 heartbeat IPC: 1.451 cumulative IPC: 2.593 (Simulation time: 04 hr 05 min 45 sec)
Heartbeat CPU 0 instructions: 480000000 cycles: 177824074 heartbeat IPC: 3.01 cumulative IPC: 2.601 (Simulation time: 04 hr 10 min 45 sec)
Heartbeat CPU 0 instructions: 490000001 cycles: 181261450 heartbeat IPC: 2.909 cumulative IPC: 2.607 (Simulation time: 04 hr 15 min 48 sec)
Heartbeat CPU 0 instructions: 500000002 cycles: 184466498 heartbeat IPC: 3.12 cumulative IPC: 2.617 (Simulation time: 04 hr 20 min 43 sec)
Heartbeat CPU 0 instructions: 510000000 cycles: 187569410 heartbeat IPC: 3.223 cumulative IPC: 2.628 (Simulation time: 04 hr 25 min 35 sec)
Heartbeat CPU 0 instructions: 520000000 cycles: 190602782 heartbeat IPC: 3.297 cumulative IPC: 2.639 (Simulation time: 04 hr 30 min 23 sec)
Heartbeat CPU 0 instructions: 530000001 cycles: 196108936 heartbeat IPC: 1.816 cumulative IPC: 2.614 (Simulation time: 04 hr 36 min 56 sec)
Heartbeat CPU 0 instructions: 540000000 cycles: 202280211 heartbeat IPC: 1.62 cumulative IPC: 2.582 (Simulation time: 04 hr 44 min 01 sec)
Heartbeat CPU 0 instructions: 550000004 cycles: 210774724 heartbeat IPC: 1.177 cumulative IPC: 2.522 (Simulation time: 04 hr 52 min 30 sec)
Heartbeat CPU 0 instructions: 560000004 cycles: 214224394 heartbeat IPC: 2.899 cumulative IPC: 2.528 (Simulation time: 04 hr 57 min 39 sec)
Heartbeat CPU 0 instructions: 570000002 cycles: 217042759 heartbeat IPC: 3.548 cumulative IPC: 2.542 (Simulation time: 05 hr 02 min 21 sec)
Heartbeat CPU 0 instructions: 580000000 cycles: 219963131 heartbeat IPC: 3.424 cumulative IPC: 2.555 (Simulation time: 05 hr 07 min 13 sec)
Heartbeat CPU 0 instructions: 590000001 cycles: 222883736 heartbeat IPC: 3.424 cumulative IPC: 2.567 (Simulation time: 05 hr 12 min 18 sec)
Heartbeat CPU 0 instructions: 600000003 cycles: 225571900 heartbeat IPC: 3.72 cumulative IPC: 2.581 (Simulation time: 05 hr 16 min 54 sec)
Heartbeat CPU 0 instructions: 610000001 cycles: 228432982 heartbeat IPC: 3.495 cumulative IPC: 2.593 (Simulation time: 05 hr 21 min 42 sec)
Heartbeat CPU 0 instructions: 620000004 cycles: 231380816 heartbeat IPC: 3.392 cumulative IPC: 2.604 (Simulation time: 05 hr 26 min 45 sec)
Heartbeat CPU 0 instructions: 630000002 cycles: 234188383 heartbeat IPC: 3.562 cumulative IPC: 2.616 (Simulation time: 05 hr 31 min 30 sec)
Heartbeat CPU 0 instructions: 640000004 cycles: 237232543 heartbeat IPC: 3.285 cumulative IPC: 2.625 (Simulation time: 05 hr 36 min 32 sec)
Heartbeat CPU 0 instructions: 650000001 cycles: 239943114 heartbeat IPC: 3.689 cumulative IPC: 2.638 (Simulation time: 05 hr 41 min 13 sec)
Simulation finished CPU 0 instructions: 600000001 cycles: 227443053 cumulative IPC: 2.638 (Simulation time: 05 hr 41 min 13 sec)
Simulation complete CPU 0 instructions: 600000001 cycles: 227443053 cumulative IPC: 2.638 (Simulation time: 05 hr 41 min 13 sec)

ChampSim completed all CPUs

=== Simulation ===
CPU 0 runs traces/400.perlbench-50B.champsimtrace.xz
Region of Interest Statistics

CPU 0 cumulative IPC: 2.638 instructions: 600000001 cycles: 227443053
CPU 0 Branch Prediction Accuracy: 99.01% MPKI: 2.04 Average ROB Occupancy at Mispredict: 94.28
Branch type MPKI
BRANCH_DIRECT_JUMP: 0.0176
BRANCH_INDIRECT: 0.38
BRANCH_CONDITIONAL: 1.19
BRANCH_DIRECT_CALL: 0.0067
BRANCH_INDIRECT_CALL: 0.431
BRANCH_RETURN: 0.0161

LLC TOTAL        ACCESS:     834686 HIT:     613219 MISS:     221467
LLC LOAD         ACCESS:     575621 HIT:     404449 MISS:     171172
LLC RFO          ACCESS:      47029 HIT:      32474 MISS:      14555
LLC PREFETCH     ACCESS:      63617 HIT:      48727 MISS:      14890
LLC WRITE        ACCESS:     126380 HIT:     118627 MISS:       7753
LLC TRANSLATION  ACCESS:      22039 HIT:       8942 MISS:      13097
LLC PREFETCH REQUESTED:      63617 ISSUED:      63617 USEFUL:       7551 USELESS:       4270
LLC AVERAGE MISS LATENCY: 541 cycles
cpu0_DTLB TOTAL        ACCESS:  133220501 HIT:  131864695 MISS:    1355806
cpu0_DTLB LOAD         ACCESS:  133220501 HIT:  131864695 MISS:    1355806
cpu0_DTLB RFO          ACCESS:          0 HIT:          0 MISS:          0
cpu0_DTLB PREFETCH     ACCESS:          0 HIT:          0 MISS:          0
cpu0_DTLB WRITE        ACCESS:          0 HIT:          0 MISS:          0
cpu0_DTLB TRANSLATION  ACCESS:          0 HIT:          0 MISS:          0
cpu0_DTLB PREFETCH REQUESTED:          0 ISSUED:          0 USEFUL:          0 USELESS:          0
cpu0_DTLB AVERAGE MISS LATENCY: 11.56 cycles
cpu0_ITLB TOTAL        ACCESS:    8994818 HIT:    8785392 MISS:     209426
cpu0_ITLB LOAD         ACCESS:    8994818 HIT:    8785392 MISS:     209426
cpu0_ITLB RFO          ACCESS:          0 HIT:          0 MISS:          0
cpu0_ITLB PREFETCH     ACCESS:          0 HIT:          0 MISS:          0
cpu0_ITLB WRITE        ACCESS:          0 HIT:          0 MISS:          0
cpu0_ITLB TRANSLATION  ACCESS:          0 HIT:          0 MISS:          0
cpu0_ITLB PREFETCH REQUESTED:          0 ISSUED:          0 USEFUL:          0 USELESS:          0
cpu0_ITLB AVERAGE MISS LATENCY: 2.827 cycles
cpu0_L1D TOTAL        ACCESS:  178264184 HIT:  174501555 MISS:    3762629
cpu0_L1D LOAD         ACCESS:   92744459 HIT:   89656405 MISS:    3088054
cpu0_L1D RFO          ACCESS:          0 HIT:          0 MISS:          0
cpu0_L1D PREFETCH     ACCESS:          0 HIT:          0 MISS:          0
cpu0_L1D WRITE        ACCESS:   85491197 HIT:   84843742 MISS:     647455
cpu0_L1D TRANSLATION  ACCESS:      28528 HIT:       1408 MISS:      27120
cpu0_L1D PREFETCH REQUESTED:          0 ISSUED:          0 USEFUL:          0 USELESS:          0
cpu0_L1D AVERAGE MISS LATENCY: 34.5 cycles
cpu0_L1I TOTAL        ACCESS:   10514718 HIT:    8616001 MISS:    1898717
cpu0_L1I LOAD         ACCESS:   10514718 HIT:    8616001 MISS:    1898717
cpu0_L1I RFO          ACCESS:          0 HIT:          0 MISS:          0
cpu0_L1I PREFETCH     ACCESS:          0 HIT:          0 MISS:          0
cpu0_L1I WRITE        ACCESS:          0 HIT:          0 MISS:          0
cpu0_L1I TRANSLATION  ACCESS:          0 HIT:          0 MISS:          0
cpu0_L1I PREFETCH REQUESTED:          0 ISSUED:          0 USEFUL:          0 USELESS:          0
cpu0_L1I AVERAGE MISS LATENCY: 9.177 cycles
cpu0_L2C TOTAL        ACCESS:    3840405 HIT:    3192542 MISS:     647863
cpu0_L2C LOAD         ACCESS:    3103862 HIT:    2528241 MISS:     575621
cpu0_L2C RFO          ACCESS:     194862 HIT:     147833 MISS:      47029
cpu0_L2C PREFETCH     ACCESS:          0 HIT:          0 MISS:          0
cpu0_L2C WRITE        ACCESS:     514645 HIT:     511471 MISS:       3174
cpu0_L2C TRANSLATION  ACCESS:      27036 HIT:       4997 MISS:      22039
cpu0_L2C PREFETCH REQUESTED:          0 ISSUED:          0 USEFUL:          0 USELESS:          0
cpu0_L2C AVERAGE MISS LATENCY: 192 cycles
cpu0_STLB TOTAL        ACCESS:    1009945 HIT:     983254 MISS:      26691
cpu0_STLB LOAD         ACCESS:    1009945 HIT:     983254 MISS:      26691
cpu0_STLB RFO          ACCESS:          0 HIT:          0 MISS:          0
cpu0_STLB PREFETCH     ACCESS:          0 HIT:          0 MISS:          0
cpu0_STLB WRITE        ACCESS:          0 HIT:          0 MISS:          0
cpu0_STLB TRANSLATION  ACCESS:          0 HIT:          0 MISS:          0
cpu0_STLB PREFETCH REQUESTED:          0 ISSUED:          0 USEFUL:          0 USELESS:          0
cpu0_STLB AVERAGE MISS LATENCY: 382.6 cycles

DRAM Statistics

Channel 0 RQ ROW_BUFFER_HIT:      48261
  ROW_BUFFER_MISS:     162206
 AVG DBUS CONGESTED CYCLE: 3.8
WQ ROW_BUFFER_HIT: Channel 0 
  ROW_BUFFER_MISS:       5574
  FULL:      15100
