WARNING: physical memory size is smaller than virtual memory size.

*** ChampSim Multicore Out-of-Order Simulator ***
Warmup Instructions: 50000000
Simulation Instructions: 600000000
Number of CPUs: 1
Page size: 4096

Off-chip DRAM Size: 4 GiB Channels: 1 Width: 64-bit Data Race: 3200 MT/s
Heartbeat CPU 0 instructions: 10000000 cycles: 2500061 heartbeat IPC: 4 cumulative IPC: 4 (Simulation time: 00 hr 00 min 39 sec)
Heartbeat CPU 0 instructions: 20000000 cycles: 5000061 heartbeat IPC: 4 cumulative IPC: 4 (Simulation time: 00 hr 01 min 34 sec)
Heartbeat CPU 0 instructions: 30000000 cycles: 7500061 heartbeat IPC: 4 cumulative IPC: 4 (Simulation time: 00 hr 02 min 40 sec)
Heartbeat CPU 0 instructions: 40000000 cycles: 10000061 heartbeat IPC: 4 cumulative IPC: 4 (Simulation time: 00 hr 04 min 14 sec)
Heartbeat CPU 0 instructions: 50000000 cycles: 12500061 heartbeat IPC: 4 cumulative IPC: 4 (Simulation time: 00 hr 06 min 14 sec)
Warmup finished CPU 0 instructions: 50000000 cycles: 12500062 cumulative IPC: 4 (Simulation time: 00 hr 06 min 14 sec)
Warmup complete CPU 0 instructions: 50000000 cycles: 12500062 cumulative IPC: 4 (Simulation time: 00 hr 06 min 14 sec)
Heartbeat CPU 0 instructions: 60000002 cycles: 16435783 heartbeat IPC: 2.541 cumulative IPC: 2.541 (Simulation time: 00 hr 10 min 10 sec)
Heartbeat CPU 0 instructions: 70000003 cycles: 20749204 heartbeat IPC: 2.318 cumulative IPC: 2.424 (Simulation time: 00 hr 15 min 10 sec)
Heartbeat CPU 0 instructions: 80000003 cycles: 25212938 heartbeat IPC: 2.24 cumulative IPC: 2.36 (Simulation time: 00 hr 20 min 02 sec)
Heartbeat CPU 0 instructions: 90000000 cycles: 28902625 heartbeat IPC: 2.71 cumulative IPC: 2.439 (Simulation time: 00 hr 24 min 33 sec)
Heartbeat CPU 0 instructions: 100000003 cycles: 32797283 heartbeat IPC: 2.568 cumulative IPC: 2.463 (Simulation time: 00 hr 29 min 09 sec)
Heartbeat CPU 0 instructions: 110000002 cycles: 36888882 heartbeat IPC: 2.444 cumulative IPC: 2.46 (Simulation time: 00 hr 33 min 50 sec)
Heartbeat CPU 0 instructions: 120000001 cycles: 40602045 heartbeat IPC: 2.693 cumulative IPC: 2.491 (Simulation time: 00 hr 38 min 23 sec)
Heartbeat CPU 0 instructions: 130000003 cycles: 44366187 heartbeat IPC: 2.657 cumulative IPC: 2.511 (Simulation time: 00 hr 42 min 58 sec)
Heartbeat CPU 0 instructions: 140000002 cycles: 48491614 heartbeat IPC: 2.424 cumulative IPC: 2.501 (Simulation time: 00 hr 47 min 42 sec)
Heartbeat CPU 0 instructions: 150000001 cycles: 52535644 heartbeat IPC: 2.473 cumulative IPC: 2.498 (Simulation time: 00 hr 52 min 23 sec)
Heartbeat CPU 0 instructions: 160000000 cycles: 56184366 heartbeat IPC: 2.741 cumulative IPC: 2.518 (Simulation time: 00 hr 56 min 51 sec)
Heartbeat CPU 0 instructions: 170000001 cycles: 60350038 heartbeat IPC: 2.401 cumulative IPC: 2.508 (Simulation time: 01 hr 01 min 36 sec)
Heartbeat CPU 0 instructions: 180000001 cycles: 63805525 heartbeat IPC: 2.894 cumulative IPC: 2.534 (Simulation time: 01 hr 05 min 57 sec)
Heartbeat CPU 0 instructions: 190000002 cycles: 67382191 heartbeat IPC: 2.796 cumulative IPC: 2.551 (Simulation time: 01 hr 10 min 29 sec)
Heartbeat CPU 0 instructions: 200000002 cycles: 71153161 heartbeat IPC: 2.652 cumulative IPC: 2.557 (Simulation time: 01 hr 15 min 00 sec)
Heartbeat CPU 0 instructions: 210000000 cycles: 74788089 heartbeat IPC: 2.751 cumulative IPC: 2.569 (Simulation time: 01 hr 19 min 30 sec)
Heartbeat CPU 0 instructions: 220000001 cycles: 78655984 heartbeat IPC: 2.585 cumulative IPC: 2.57 (Simulation time: 01 hr 24 min 05 sec)
Heartbeat CPU 0 instructions: 230000002 cycles: 82491062 heartbeat IPC: 2.608 cumulative IPC: 2.572 (Simulation time: 01 hr 28 min 43 sec)
Heartbeat CPU 0 instructions: 240000001 cycles: 86693138 heartbeat IPC: 2.38 cumulative IPC: 2.561 (Simulation time: 01 hr 33 min 29 sec)
Heartbeat CPU 0 instructions: 250000003 cycles: 91251932 heartbeat IPC: 2.194 cumulative IPC: 2.54 (Simulation time: 01 hr 38 min 23 sec)
Heartbeat CPU 0 instructions: 260000000 cycles: 95043028 heartbeat IPC: 2.638 cumulative IPC: 2.544 (Simulation time: 01 hr 42 min 58 sec)
Heartbeat CPU 0 instructions: 270000003 cycles: 101666601 heartbeat IPC: 1.51 cumulative IPC: 2.467 (Simulation time: 01 hr 49 min 23 sec)
Heartbeat CPU 0 instructions: 280000000 cycles: 111702504 heartbeat IPC: 0.9964 cumulative IPC: 2.318 (Simulation time: 01 hr 58 min 03 sec)
Heartbeat CPU 0 instructions: 290000000 cycles: 121189828 heartbeat IPC: 1.054 cumulative IPC: 2.208 (Simulation time: 02 hr 06 min 29 sec)
Heartbeat CPU 0 instructions: 300000003 cycles: 128542937 heartbeat IPC: 1.36 cumulative IPC: 2.154 (Simulation time: 02 hr 13 min 44 sec)
Heartbeat CPU 0 instructions: 310000004 cycles: 139364874 heartbeat IPC: 0.924 cumulative IPC: 2.049 (Simulation time: 02 hr 23 min 12 sec)
Heartbeat CPU 0 instructions: 320000004 cycles: 144389012 heartbeat IPC: 1.99 cumulative IPC: 2.047 (Simulation time: 02 hr 28 min 45 sec)
Heartbeat CPU 0 instructions: 330000000 cycles: 148414564 heartbeat IPC: 2.484 cumulative IPC: 2.06 (Simulation time: 02 hr 33 min 46 sec)
Heartbeat CPU 0 instructions: 340000001 cycles: 152352066 heartbeat IPC: 2.54 cumulative IPC: 2.074 (Simulation time: 02 hr 38 min 27 sec)
Heartbeat CPU 0 instructions: 350000004 cycles: 156442343 heartbeat IPC: 2.445 cumulative IPC: 2.084 (Simulation time: 02 hr 43 min 16 sec)
Heartbeat CPU 0 instructions: 360000003 cycles: 160301585 heartbeat IPC: 2.591 cumulative IPC: 2.097 (Simulation time: 02 hr 47 min 56 sec)
Heartbeat CPU 0 instructions: 370000001 cycles: 164153248 heartbeat IPC: 2.596 cumulative IPC: 2.11 (Simulation time: 02 hr 52 min 37 sec)
Heartbeat CPU 0 instructions: 380000004 cycles: 167883530 heartbeat IPC: 2.681 cumulative IPC: 2.124 (Simulation time: 02 hr 57 min 14 sec)
Heartbeat CPU 0 instructions: 390000002 cycles: 171762232 heartbeat IPC: 2.578 cumulative IPC: 2.135 (Simulation time: 03 hr 01 min 59 sec)
Heartbeat CPU 0 instructions: 400000000 cycles: 175964949 heartbeat IPC: 2.379 cumulative IPC: 2.141 (Simulation time: 03 hr 06 min 54 sec)
Heartbeat CPU 0 instructions: 410000000 cycles: 182719868 heartbeat IPC: 1.48 cumulative IPC: 2.115 (Simulation time: 03 hr 13 min 31 sec)
Heartbeat CPU 0 instructions: 420000003 cycles: 192861803 heartbeat IPC: 0.986 cumulative IPC: 2.051 (Simulation time: 03 hr 22 min 19 sec)
Heartbeat CPU 0 instructions: 430000000 cycles: 199939590 heartbeat IPC: 1.413 cumulative IPC: 2.027 (Simulation time: 03 hr 29 min 26 sec)
Heartbeat CPU 0 instructions: 440000004 cycles: 206393171 heartbeat IPC: 1.55 cumulative IPC: 2.011 (Simulation time: 03 hr 36 min 07 sec)
Heartbeat CPU 0 instructions: 450000001 cycles: 212973689 heartbeat IPC: 1.52 cumulative IPC: 1.995 (Simulation time: 03 hr 42 min 51 sec)
Heartbeat CPU 0 instructions: 460000002 cycles: 222983288 heartbeat IPC: 0.999 cumulative IPC: 1.948 (Simulation time: 03 hr 51 min 43 sec)
Heartbeat CPU 0 instructions: 470000003 cycles: 231648528 heartbeat IPC: 1.154 cumulative IPC: 1.917 (Simulation time: 03 hr 59 min 43 sec)
Heartbeat CPU 0 instructions: 480000003 cycles: 235829017 heartbeat IPC: 2.392 cumulative IPC: 1.925 (Simulation time: 04 hr 04 min 38 sec)
Heartbeat CPU 0 instructions: 490000001 cycles: 240361430 heartbeat IPC: 2.206 cumulative IPC: 1.931 (Simulation time: 04 hr 09 min 47 sec)
Heartbeat CPU 0 instructions: 500000002 cycles: 244657986 heartbeat IPC: 2.327 cumulative IPC: 1.938 (Simulation time: 04 hr 14 min 48 sec)
Heartbeat CPU 0 instructions: 510000000 cycles: 248856100 heartbeat IPC: 2.382 cumulative IPC: 1.946 (Simulation time: 04 hr 19 min 45 sec)
Heartbeat CPU 0 instructions: 520000000 cycles: 253246860 heartbeat IPC: 2.278 cumulative IPC: 1.952 (Simulation time: 04 hr 24 min 47 sec)
Heartbeat CPU 0 instructions: 530000001 cycles: 263386290 heartbeat IPC: 0.9862 cumulative IPC: 1.913 (Simulation time: 04 hr 33 min 31 sec)
Heartbeat CPU 0 instructions: 540000000 cycles: 273360041 heartbeat IPC: 1.003 cumulative IPC: 1.878 (Simulation time: 04 hr 42 min 23 sec)
Heartbeat CPU 0 instructions: 550000004 cycles: 284570768 heartbeat IPC: 0.892 cumulative IPC: 1.838 (Simulation time: 04 hr 51 min 58 sec)
Heartbeat CPU 0 instructions: 560000004 cycles: 288667333 heartbeat IPC: 2.441 cumulative IPC: 1.847 (Simulation time: 04 hr 56 min 48 sec)
Heartbeat CPU 0 instructions: 570000001 cycles: 291787013 heartbeat IPC: 3.205 cumulative IPC: 1.862 (Simulation time: 05 hr 01 min 06 sec)
Heartbeat CPU 0 instructions: 580000003 cycles: 295322220 heartbeat IPC: 2.829 cumulative IPC: 1.874 (Simulation time: 05 hr 05 min 34 sec)
Heartbeat CPU 0 instructions: 590000002 cycles: 298940574 heartbeat IPC: 2.764 cumulative IPC: 1.885 (Simulation time: 05 hr 10 min 04 sec)
Heartbeat CPU 0 instructions: 600000003 cycles: 301998741 heartbeat IPC: 3.27 cumulative IPC: 1.9 (Simulation time: 05 hr 14 min 19 sec)
Heartbeat CPU 0 instructions: 610000001 cycles: 305505080 heartbeat IPC: 2.852 cumulative IPC: 1.911 (Simulation time: 05 hr 18 min 46 sec)
Heartbeat CPU 0 instructions: 620000000 cycles: 309517286 heartbeat IPC: 2.492 cumulative IPC: 1.919 (Simulation time: 05 hr 23 min 44 sec)
Heartbeat CPU 0 instructions: 630000002 cycles: 312876692 heartbeat IPC: 2.977 cumulative IPC: 1.931 (Simulation time: 05 hr 28 min 09 sec)
Heartbeat CPU 0 instructions: 640000004 cycles: 316878300 heartbeat IPC: 2.499 cumulative IPC: 1.938 (Simulation time: 05 hr 32 min 55 sec)
Heartbeat CPU 0 instructions: 650000001 cycles: 320695824 heartbeat IPC: 2.619 cumulative IPC: 1.947 (Simulation time: 05 hr 37 min 45 sec)
Simulation finished CPU 0 instructions: 600000001 cycles: 308195763 cumulative IPC: 1.947 (Simulation time: 05 hr 37 min 45 sec)
Simulation complete CPU 0 instructions: 600000001 cycles: 308195763 cumulative IPC: 1.947 (Simulation time: 05 hr 37 min 45 sec)

ChampSim completed all CPUs

=== Simulation ===
CPU 0 runs traces/400.perlbench-50B.champsimtrace.xz
Region of Interest Statistics

CPU 0 cumulative IPC: 1.947 instructions: 600000001 cycles: 308195763
CPU 0 Branch Prediction Accuracy: 96.2% MPKI: 7.839 Average ROB Occupancy at Mispredict: 43.35
Branch type MPKI
BRANCH_DIRECT_JUMP: 0.0176
BRANCH_INDIRECT: 0.38
BRANCH_CONDITIONAL: 6.99
BRANCH_DIRECT_CALL: 0.0067
BRANCH_INDIRECT_CALL: 0.431
BRANCH_RETURN: 0.0161

LLC TOTAL        ACCESS:    1351461 HIT:     950435 MISS:     401026
LLC LOAD         ACCESS:     577383 HIT:     401098 MISS:     176285
LLC RFO          ACCESS:      47428 HIT:      31022 MISS:      16406
LLC PREFETCH     ACCESS:     577383 HIT:     381281 MISS:     196102
LLC WRITE        ACCESS:     127156 HIT:     125925 MISS:       1231
LLC TRANSLATION  ACCESS:      22111 HIT:      11109 MISS:      11002
LLC PREFETCH REQUESTED:     577383 ISSUED:     577383 USEFUL:      63031 USELESS:      80858
LLC AVERAGE MISS LATENCY: 522 cycles
cpu0_DTLB TOTAL        ACCESS:  146517206 HIT:  145211560 MISS:    1305646
cpu0_DTLB LOAD         ACCESS:  146517206 HIT:  145211560 MISS:    1305646
cpu0_DTLB RFO          ACCESS:          0 HIT:          0 MISS:          0
cpu0_DTLB PREFETCH     ACCESS:          0 HIT:          0 MISS:          0
cpu0_DTLB WRITE        ACCESS:          0 HIT:          0 MISS:          0
cpu0_DTLB TRANSLATION  ACCESS:          0 HIT:          0 MISS:          0
cpu0_DTLB PREFETCH REQUESTED:          0 ISSUED:          0 USEFUL:          0 USELESS:          0
cpu0_DTLB AVERAGE MISS LATENCY: 11.62 cycles
cpu0_ITLB TOTAL        ACCESS:    8985718 HIT:    8801219 MISS:     184499
cpu0_ITLB LOAD         ACCESS:    8985718 HIT:    8801219 MISS:     184499
cpu0_ITLB RFO          ACCESS:          0 HIT:          0 MISS:          0
cpu0_ITLB PREFETCH     ACCESS:          0 HIT:          0 MISS:          0
cpu0_ITLB WRITE        ACCESS:          0 HIT:          0 MISS:          0
cpu0_ITLB TRANSLATION  ACCESS:          0 HIT:          0 MISS:          0
cpu0_ITLB PREFETCH REQUESTED:          0 ISSUED:          0 USEFUL:          0 USELESS:          0
cpu0_ITLB AVERAGE MISS LATENCY: 3.338 cycles
cpu0_L1D TOTAL        ACCESS:  193306032 HIT:  189651229 MISS:    3654803
cpu0_L1D LOAD         ACCESS:  107459960 HIT:  104454478 MISS:    3005482
cpu0_L1D RFO          ACCESS:          0 HIT:          0 MISS:          0
cpu0_L1D PREFETCH     ACCESS:          0 HIT:          0 MISS:          0
cpu0_L1D WRITE        ACCESS:   85817546 HIT:   85195320 MISS:     622226
cpu0_L1D TRANSLATION  ACCESS:      28526 HIT:       1431 MISS:      27095
cpu0_L1D PREFETCH REQUESTED:          0 ISSUED:          0 USEFUL:          0 USELESS:          0
cpu0_L1D AVERAGE MISS LATENCY: 37.96 cycles
cpu0_L1I TOTAL        ACCESS:   10420611 HIT:    8658920 MISS:    1761691
cpu0_L1I LOAD         ACCESS:   10420611 HIT:    8658920 MISS:    1761691
cpu0_L1I RFO          ACCESS:          0 HIT:          0 MISS:          0
cpu0_L1I PREFETCH     ACCESS:          0 HIT:          0 MISS:          0
cpu0_L1I WRITE        ACCESS:          0 HIT:          0 MISS:          0
cpu0_L1I TRANSLATION  ACCESS:          0 HIT:          0 MISS:          0
cpu0_L1I PREFETCH REQUESTED:          0 ISSUED:          0 USEFUL:          0 USELESS:          0
cpu0_L1I AVERAGE MISS LATENCY: 10.15 cycles
cpu0_L2C TOTAL        ACCESS:    3834635 HIT:    3184650 MISS:     649985
cpu0_L2C LOAD         ACCESS:    3104969 HIT:    2527586 MISS:     577383
cpu0_L2C RFO          ACCESS:     191543 HIT:     144115 MISS:      47428
cpu0_L2C PREFETCH     ACCESS:          0 HIT:          0 MISS:          0
cpu0_L2C WRITE        ACCESS:     511091 HIT:     508028 MISS:       3063
cpu0_L2C TRANSLATION  ACCESS:      27032 HIT:       4921 MISS:      22111
cpu0_L2C PREFETCH REQUESTED:          0 ISSUED:          0 USEFUL:          0 USELESS:          0
cpu0_L2C AVERAGE MISS LATENCY: 200.4 cycles
cpu0_STLB TOTAL        ACCESS:    1008427 HIT:     981733 MISS:      26694
cpu0_STLB LOAD         ACCESS:    1008427 HIT:     981733 MISS:      26694
cpu0_STLB RFO          ACCESS:          0 HIT:          0 MISS:          0
cpu0_STLB PREFETCH     ACCESS:          0 HIT:          0 MISS:          0
cpu0_STLB WRITE        ACCESS:          0 HIT:          0 MISS:          0
cpu0_STLB TRANSLATION  ACCESS:          0 HIT:          0 MISS:          0
cpu0_STLB PREFETCH REQUESTED:          0 ISSUED:          0 USEFUL:          0 USELESS:          0
cpu0_STLB AVERAGE MISS LATENCY: 346.1 cycles

DRAM Statistics

Channel 0 RQ ROW_BUFFER_HIT:      72168
  ROW_BUFFER_MISS:     267859
 AVG DBUS CONGESTED CYCLE: 3.855
WQ ROW_BUFFER_HIT: Channel 0 
  ROW_BUFFER_MISS:       6466
  FULL:      26969
