WARNING: physical memory size is smaller than virtual memory size.

*** ChampSim Multicore Out-of-Order Simulator ***
Warmup Instructions: 50000000
Simulation Instructions: 600000000
Number of CPUs: 1
Page size: 4096

Off-chip DRAM Size: 4 GiB Channels: 1 Width: 64-bit Data Race: 3200 MT/s
Heartbeat CPU 0 instructions: 10000001 cycles: 2500318 heartbeat IPC: 3.999 cumulative IPC: 3.999 (Simulation time: 00 hr 00 min 50 sec)
Heartbeat CPU 0 instructions: 20000002 cycles: 5037136 heartbeat IPC: 3.942 cumulative IPC: 3.971 (Simulation time: 00 hr 01 min 39 sec)
Heartbeat CPU 0 instructions: 30000002 cycles: 7537136 heartbeat IPC: 4 cumulative IPC: 3.98 (Simulation time: 00 hr 02 min 22 sec)
Heartbeat CPU 0 instructions: 40000002 cycles: 10037136 heartbeat IPC: 4 cumulative IPC: 3.985 (Simulation time: 00 hr 03 min 05 sec)
Heartbeat CPU 0 instructions: 50000002 cycles: 12537136 heartbeat IPC: 4 cumulative IPC: 3.988 (Simulation time: 00 hr 03 min 53 sec)
Warmup finished CPU 0 instructions: 50000002 cycles: 12537137 cumulative IPC: 3.988 (Simulation time: 00 hr 03 min 53 sec)
Warmup complete CPU 0 instructions: 50000002 cycles: 12537137 cumulative IPC: 3.988 (Simulation time: 00 hr 03 min 53 sec)
Heartbeat CPU 0 instructions: 60000000 cycles: 17138973 heartbeat IPC: 2.173 cumulative IPC: 2.173 (Simulation time: 00 hr 05 min 03 sec)
Heartbeat CPU 0 instructions: 70000004 cycles: 21408788 heartbeat IPC: 2.342 cumulative IPC: 2.254 (Simulation time: 00 hr 06 min 14 sec)
Heartbeat CPU 0 instructions: 80000001 cycles: 26006375 heartbeat IPC: 2.175 cumulative IPC: 2.227 (Simulation time: 00 hr 07 min 20 sec)
Heartbeat CPU 0 instructions: 90000001 cycles: 30135052 heartbeat IPC: 2.422 cumulative IPC: 2.273 (Simulation time: 00 hr 08 min 29 sec)
Heartbeat CPU 0 instructions: 100000000 cycles: 34186295 heartbeat IPC: 2.468 cumulative IPC: 2.31 (Simulation time: 00 hr 09 min 36 sec)
Heartbeat CPU 0 instructions: 110000000 cycles: 38420564 heartbeat IPC: 2.362 cumulative IPC: 2.318 (Simulation time: 00 hr 10 min 48 sec)
Heartbeat CPU 0 instructions: 120000001 cycles: 42428317 heartbeat IPC: 2.495 cumulative IPC: 2.342 (Simulation time: 00 hr 11 min 49 sec)
Heartbeat CPU 0 instructions: 130000001 cycles: 46158769 heartbeat IPC: 2.681 cumulative IPC: 2.379 (Simulation time: 00 hr 12 min 47 sec)
Heartbeat CPU 0 instructions: 140000001 cycles: 50318193 heartbeat IPC: 2.404 cumulative IPC: 2.382 (Simulation time: 00 hr 13 min 46 sec)
Heartbeat CPU 0 instructions: 150000001 cycles: 54514532 heartbeat IPC: 2.383 cumulative IPC: 2.382 (Simulation time: 00 hr 14 min 44 sec)
Heartbeat CPU 0 instructions: 160000004 cycles: 58925470 heartbeat IPC: 2.267 cumulative IPC: 2.371 (Simulation time: 00 hr 15 min 42 sec)
Heartbeat CPU 0 instructions: 170000000 cycles: 67587786 heartbeat IPC: 1.154 cumulative IPC: 2.18 (Simulation time: 00 hr 17 min 08 sec)
Heartbeat CPU 0 instructions: 180000004 cycles: 76806809 heartbeat IPC: 1.085 cumulative IPC: 2.023 (Simulation time: 00 hr 18 min 40 sec)
Heartbeat CPU 0 instructions: 190000001 cycles: 86510960 heartbeat IPC: 1.03 cumulative IPC: 1.893 (Simulation time: 00 hr 20 min 15 sec)
Heartbeat CPU 0 instructions: 200000004 cycles: 90262547 heartbeat IPC: 2.666 cumulative IPC: 1.93 (Simulation time: 00 hr 21 min 08 sec)
Heartbeat CPU 0 instructions: 210000001 cycles: 94164573 heartbeat IPC: 2.563 cumulative IPC: 1.96 (Simulation time: 00 hr 22 min 02 sec)
Heartbeat CPU 0 instructions: 220000000 cycles: 98114971 heartbeat IPC: 2.531 cumulative IPC: 1.986 (Simulation time: 00 hr 22 min 56 sec)
Heartbeat CPU 0 instructions: 230000002 cycles: 102760899 heartbeat IPC: 2.152 cumulative IPC: 1.995 (Simulation time: 00 hr 23 min 53 sec)
Heartbeat CPU 0 instructions: 240000000 cycles: 106934652 heartbeat IPC: 2.396 cumulative IPC: 2.013 (Simulation time: 00 hr 24 min 48 sec)
Heartbeat CPU 0 instructions: 250000000 cycles: 111245648 heartbeat IPC: 2.32 cumulative IPC: 2.026 (Simulation time: 00 hr 25 min 44 sec)
Heartbeat CPU 0 instructions: 260000000 cycles: 115414402 heartbeat IPC: 2.399 cumulative IPC: 2.041 (Simulation time: 00 hr 26 min 40 sec)
Heartbeat CPU 0 instructions: 270000002 cycles: 119250609 heartbeat IPC: 2.607 cumulative IPC: 2.062 (Simulation time: 00 hr 27 min 33 sec)
Heartbeat CPU 0 instructions: 280000002 cycles: 123410289 heartbeat IPC: 2.404 cumulative IPC: 2.074 (Simulation time: 00 hr 28 min 28 sec)
Heartbeat CPU 0 instructions: 290000001 cycles: 127300743 heartbeat IPC: 2.57 cumulative IPC: 2.091 (Simulation time: 00 hr 29 min 21 sec)
Heartbeat CPU 0 instructions: 300000003 cycles: 131113114 heartbeat IPC: 2.623 cumulative IPC: 2.108 (Simulation time: 00 hr 30 min 16 sec)
Heartbeat CPU 0 instructions: 310000001 cycles: 135216229 heartbeat IPC: 2.437 cumulative IPC: 2.119 (Simulation time: 00 hr 31 min 10 sec)
Heartbeat CPU 0 instructions: 320000003 cycles: 139283805 heartbeat IPC: 2.458 cumulative IPC: 2.13 (Simulation time: 00 hr 32 min 05 sec)
Heartbeat CPU 0 instructions: 330000003 cycles: 143663286 heartbeat IPC: 2.283 cumulative IPC: 2.135 (Simulation time: 00 hr 33 min 01 sec)
Heartbeat CPU 0 instructions: 340000000 cycles: 152216318 heartbeat IPC: 1.169 cumulative IPC: 2.076 (Simulation time: 00 hr 34 min 27 sec)
Heartbeat CPU 0 instructions: 350000000 cycles: 161722550 heartbeat IPC: 1.052 cumulative IPC: 2.011 (Simulation time: 00 hr 36 min 01 sec)
Heartbeat CPU 0 instructions: 360000004 cycles: 171335515 heartbeat IPC: 1.04 cumulative IPC: 1.952 (Simulation time: 00 hr 37 min 36 sec)
Heartbeat CPU 0 instructions: 370000000 cycles: 174769171 heartbeat IPC: 2.912 cumulative IPC: 1.972 (Simulation time: 00 hr 38 min 27 sec)
Heartbeat CPU 0 instructions: 380000001 cycles: 178170186 heartbeat IPC: 2.94 cumulative IPC: 1.992 (Simulation time: 00 hr 39 min 20 sec)
Heartbeat CPU 0 instructions: 390000004 cycles: 181910252 heartbeat IPC: 2.674 cumulative IPC: 2.007 (Simulation time: 00 hr 40 min 13 sec)
Heartbeat CPU 0 instructions: 400000004 cycles: 185717809 heartbeat IPC: 2.626 cumulative IPC: 2.021 (Simulation time: 00 hr 41 min 06 sec)
Heartbeat CPU 0 instructions: 410000001 cycles: 189361638 heartbeat IPC: 2.744 cumulative IPC: 2.036 (Simulation time: 00 hr 41 min 58 sec)
Heartbeat CPU 0 instructions: 420000003 cycles: 193354739 heartbeat IPC: 2.504 cumulative IPC: 2.046 (Simulation time: 00 hr 42 min 53 sec)
Heartbeat CPU 0 instructions: 430000001 cycles: 197001464 heartbeat IPC: 2.742 cumulative IPC: 2.06 (Simulation time: 00 hr 43 min 46 sec)
Heartbeat CPU 0 instructions: 440000004 cycles: 201081042 heartbeat IPC: 2.451 cumulative IPC: 2.068 (Simulation time: 00 hr 44 min 41 sec)
Heartbeat CPU 0 instructions: 450000002 cycles: 204804595 heartbeat IPC: 2.686 cumulative IPC: 2.08 (Simulation time: 00 hr 45 min 34 sec)
Heartbeat CPU 0 instructions: 460000000 cycles: 208463591 heartbeat IPC: 2.733 cumulative IPC: 2.093 (Simulation time: 00 hr 46 min 27 sec)
Heartbeat CPU 0 instructions: 470000000 cycles: 211919349 heartbeat IPC: 2.894 cumulative IPC: 2.107 (Simulation time: 00 hr 47 min 19 sec)
Heartbeat CPU 0 instructions: 480000003 cycles: 215723392 heartbeat IPC: 2.629 cumulative IPC: 2.116 (Simulation time: 00 hr 48 min 12 sec)
Heartbeat CPU 0 instructions: 490000000 cycles: 219349528 heartbeat IPC: 2.758 cumulative IPC: 2.128 (Simulation time: 00 hr 49 min 05 sec)
Heartbeat CPU 0 instructions: 500000000 cycles: 223038815 heartbeat IPC: 2.711 cumulative IPC: 2.138 (Simulation time: 00 hr 49 min 57 sec)
Heartbeat CPU 0 instructions: 510000003 cycles: 226670685 heartbeat IPC: 2.753 cumulative IPC: 2.148 (Simulation time: 00 hr 50 min 50 sec)
Heartbeat CPU 0 instructions: 520000001 cycles: 230069486 heartbeat IPC: 2.942 cumulative IPC: 2.161 (Simulation time: 00 hr 51 min 42 sec)
Heartbeat CPU 0 instructions: 530000002 cycles: 233720195 heartbeat IPC: 2.739 cumulative IPC: 2.17 (Simulation time: 00 hr 52 min 34 sec)
Heartbeat CPU 0 instructions: 540000000 cycles: 237237102 heartbeat IPC: 2.843 cumulative IPC: 2.181 (Simulation time: 00 hr 53 min 26 sec)
Heartbeat CPU 0 instructions: 550000001 cycles: 240924884 heartbeat IPC: 2.712 cumulative IPC: 2.189 (Simulation time: 00 hr 54 min 19 sec)
Heartbeat CPU 0 instructions: 560000000 cycles: 244873493 heartbeat IPC: 2.533 cumulative IPC: 2.195 (Simulation time: 00 hr 55 min 13 sec)
Heartbeat CPU 0 instructions: 570000004 cycles: 250631485 heartbeat IPC: 1.737 cumulative IPC: 2.184 (Simulation time: 00 hr 56 min 21 sec)
Heartbeat CPU 0 instructions: 580000003 cycles: 260632246 heartbeat IPC: 0.9999 cumulative IPC: 2.136 (Simulation time: 00 hr 57 min 57 sec)
Heartbeat CPU 0 instructions: 590000002 cycles: 272268013 heartbeat IPC: 0.8594 cumulative IPC: 2.079 (Simulation time: 00 hr 59 min 46 sec)
Heartbeat CPU 0 instructions: 600000000 cycles: 275964400 heartbeat IPC: 2.705 cumulative IPC: 2.088 (Simulation time: 01 hr 00 min 38 sec)
Heartbeat CPU 0 instructions: 610000000 cycles: 279814488 heartbeat IPC: 2.597 cumulative IPC: 2.095 (Simulation time: 01 hr 01 min 31 sec)
Heartbeat CPU 0 instructions: 620000001 cycles: 283238707 heartbeat IPC: 2.92 cumulative IPC: 2.106 (Simulation time: 01 hr 02 min 23 sec)
Heartbeat CPU 0 instructions: 630000002 cycles: 287509644 heartbeat IPC: 2.341 cumulative IPC: 2.109 (Simulation time: 01 hr 03 min 20 sec)
Heartbeat CPU 0 instructions: 640000001 cycles: 291405000 heartbeat IPC: 2.567 cumulative IPC: 2.116 (Simulation time: 01 hr 04 min 13 sec)
Heartbeat CPU 0 instructions: 650000000 cycles: 295155397 heartbeat IPC: 2.666 cumulative IPC: 2.123 (Simulation time: 01 hr 05 min 05 sec)
Simulation finished CPU 0 instructions: 600000001 cycles: 282618262 cumulative IPC: 2.123 (Simulation time: 01 hr 05 min 05 sec)
Simulation complete CPU 0 instructions: 600000001 cycles: 282618262 cumulative IPC: 2.123 (Simulation time: 01 hr 05 min 05 sec)

ChampSim completed all CPUs

=== Simulation ===
CPU 0 runs traces/400.perlbench-41B.champsimtrace.xz
Region of Interest Statistics

CPU 0 cumulative IPC: 2.123 instructions: 600000001 cycles: 282618262
CPU 0 Branch Prediction Accuracy: 96.56% MPKI: 7.112 Average ROB Occupancy at Mispredict: 47.26
Branch type MPKI
BRANCH_DIRECT_JUMP: 0.0123
BRANCH_INDIRECT: 0.323
BRANCH_CONDITIONAL: 6.56
BRANCH_DIRECT_CALL: 0.0043
BRANCH_INDIRECT_CALL: 0.2
BRANCH_RETURN: 0.00828

LLC TOTAL        ACCESS:     539948 HIT:     329738 MISS:     210210
LLC LOAD         ACCESS:     403111 HIT:     211935 MISS:     191176
LLC RFO          ACCESS:      32530 HIT:      21984 MISS:      10546
LLC PREFETCH     ACCESS:          0 HIT:          0 MISS:          0
LLC WRITE        ACCESS:      85233 HIT:      85165 MISS:         68
LLC TRANSLATION  ACCESS:      19074 HIT:      10654 MISS:       8420
LLC PREFETCH REQUESTED:          0 ISSUED:          0 USEFUL:          0 USELESS:          0
LLC AVERAGE MISS LATENCY: 553.3 cycles
cpu0_DTLB TOTAL        ACCESS:  141916342 HIT:  141229268 MISS:     687074
cpu0_DTLB LOAD         ACCESS:  141916342 HIT:  141229268 MISS:     687074
cpu0_DTLB RFO          ACCESS:          0 HIT:          0 MISS:          0
cpu0_DTLB PREFETCH     ACCESS:          0 HIT:          0 MISS:          0
cpu0_DTLB WRITE        ACCESS:          0 HIT:          0 MISS:          0
cpu0_DTLB TRANSLATION  ACCESS:          0 HIT:          0 MISS:          0
cpu0_DTLB PREFETCH REQUESTED:          0 ISSUED:          0 USEFUL:          0 USELESS:          0
cpu0_DTLB AVERAGE MISS LATENCY: 13.04 cycles
cpu0_ITLB TOTAL        ACCESS:    4859666 HIT:    4806550 MISS:      53116
cpu0_ITLB LOAD         ACCESS:    4859666 HIT:    4806550 MISS:      53116
cpu0_ITLB RFO          ACCESS:          0 HIT:          0 MISS:          0
cpu0_ITLB PREFETCH     ACCESS:          0 HIT:          0 MISS:          0
cpu0_ITLB WRITE        ACCESS:          0 HIT:          0 MISS:          0
cpu0_ITLB TRANSLATION  ACCESS:          0 HIT:          0 MISS:          0
cpu0_ITLB PREFETCH REQUESTED:          0 ISSUED:          0 USEFUL:          0 USELESS:          0
cpu0_ITLB AVERAGE MISS LATENCY: 7.089 cycles
cpu0_L1D TOTAL        ACCESS:  188569972 HIT:  186836154 MISS:    1733818
cpu0_L1D LOAD         ACCESS:  105202531 HIT:  103846512 MISS:    1356019
cpu0_L1D RFO          ACCESS:          0 HIT:          0 MISS:          0
cpu0_L1D PREFETCH     ACCESS:          0 HIT:          0 MISS:          0
cpu0_L1D WRITE        ACCESS:   83342981 HIT:   82988577 MISS:     354404
cpu0_L1D TRANSLATION  ACCESS:      24460 HIT:       1065 MISS:      23395
cpu0_L1D PREFETCH REQUESTED:          0 ISSUED:          0 USEFUL:          0 USELESS:          0
cpu0_L1D AVERAGE MISS LATENCY: 73.18 cycles
cpu0_L1I TOTAL        ACCESS:    5597661 HIT:    4854026 MISS:     743635
cpu0_L1I LOAD         ACCESS:    5597661 HIT:    4854026 MISS:     743635
cpu0_L1I RFO          ACCESS:          0 HIT:          0 MISS:          0
cpu0_L1I PREFETCH     ACCESS:          0 HIT:          0 MISS:          0
cpu0_L1I WRITE        ACCESS:          0 HIT:          0 MISS:          0
cpu0_L1I TRANSLATION  ACCESS:          0 HIT:          0 MISS:          0
cpu0_L1I PREFETCH REQUESTED:          0 ISSUED:          0 USEFUL:          0 USELESS:          0
cpu0_L1I AVERAGE MISS LATENCY: 10.09 cycles
cpu0_L2C TOTAL        ACCESS:    1665643 HIT:    1209099 MISS:     456544
cpu0_L2C LOAD         ACCESS:    1315932 HIT:     912821 MISS:     403111
cpu0_L2C RFO          ACCESS:      88340 HIT:      55810 MISS:      32530
cpu0_L2C PREFETCH     ACCESS:          0 HIT:          0 MISS:          0
cpu0_L2C WRITE        ACCESS:     238042 HIT:     236213 MISS:       1829
cpu0_L2C TRANSLATION  ACCESS:      23329 HIT:       4255 MISS:      19074
cpu0_L2C PREFETCH REQUESTED:          0 ISSUED:          0 USEFUL:          0 USELESS:          0
cpu0_L2C AVERAGE MISS LATENCY: 275.1 cycles
cpu0_STLB TOTAL        ACCESS:     507430 HIT:     484636 MISS:      22794
cpu0_STLB LOAD         ACCESS:     507430 HIT:     484636 MISS:      22794
cpu0_STLB RFO          ACCESS:          0 HIT:          0 MISS:          0
cpu0_STLB PREFETCH     ACCESS:          0 HIT:          0 MISS:          0
cpu0_STLB WRITE        ACCESS:          0 HIT:          0 MISS:          0
cpu0_STLB TRANSLATION  ACCESS:          0 HIT:          0 MISS:          0
cpu0_STLB PREFETCH REQUESTED:          0 ISSUED:          0 USEFUL:          0 USELESS:          0
cpu0_STLB AVERAGE MISS LATENCY: 270.2 cycles

DRAM Statistics

Channel 0 RQ ROW_BUFFER_HIT:      39912
  ROW_BUFFER_MISS:     170224
 AVG DBUS CONGESTED CYCLE: 3.777
WQ ROW_BUFFER_HIT: Channel 0 
  ROW_BUFFER_MISS:       6631
  FULL:      18373
