WARNING: physical memory size is smaller than virtual memory size.

*** ChampSim Multicore Out-of-Order Simulator ***
Warmup Instructions: 50000000
Simulation Instructions: 600000000
Number of CPUs: 1
Page size: 4096

Off-chip DRAM Size: 4 GiB Channels: 1 Width: 64-bit Data Race: 3200 MT/s
Heartbeat CPU 0 instructions: 10000000 cycles: 2500061 heartbeat IPC: 4 cumulative IPC: 4 (Simulation time: 00 hr 03 min 29 sec)
Heartbeat CPU 0 instructions: 20000000 cycles: 5000061 heartbeat IPC: 4 cumulative IPC: 4 (Simulation time: 00 hr 06 min 40 sec)
Heartbeat CPU 0 instructions: 30000000 cycles: 7500061 heartbeat IPC: 4 cumulative IPC: 4 (Simulation time: 00 hr 09 min 48 sec)
Heartbeat CPU 0 instructions: 40000000 cycles: 10000061 heartbeat IPC: 4 cumulative IPC: 4 (Simulation time: 00 hr 13 min 08 sec)
Heartbeat CPU 0 instructions: 50000000 cycles: 12500061 heartbeat IPC: 4 cumulative IPC: 4 (Simulation time: 00 hr 16 min 32 sec)
Warmup finished CPU 0 instructions: 50000000 cycles: 12500062 cumulative IPC: 4 (Simulation time: 00 hr 16 min 32 sec)
Warmup complete CPU 0 instructions: 50000000 cycles: 12500062 cumulative IPC: 4 (Simulation time: 00 hr 16 min 32 sec)
Heartbeat CPU 0 instructions: 60000002 cycles: 16446623 heartbeat IPC: 2.534 cumulative IPC: 2.534 (Simulation time: 00 hr 21 min 10 sec)
Heartbeat CPU 0 instructions: 70000003 cycles: 20770663 heartbeat IPC: 2.313 cumulative IPC: 2.418 (Simulation time: 00 hr 25 min 53 sec)
Heartbeat CPU 0 instructions: 80000003 cycles: 25247437 heartbeat IPC: 2.234 cumulative IPC: 2.353 (Simulation time: 00 hr 30 min 51 sec)
Heartbeat CPU 0 instructions: 90000000 cycles: 28939876 heartbeat IPC: 2.708 cumulative IPC: 2.433 (Simulation time: 00 hr 35 min 15 sec)
Heartbeat CPU 0 instructions: 100000003 cycles: 32843908 heartbeat IPC: 2.561 cumulative IPC: 2.458 (Simulation time: 00 hr 39 min 37 sec)
Heartbeat CPU 0 instructions: 110000002 cycles: 36950135 heartbeat IPC: 2.435 cumulative IPC: 2.454 (Simulation time: 00 hr 44 min 12 sec)
Heartbeat CPU 0 instructions: 120000001 cycles: 40668359 heartbeat IPC: 2.689 cumulative IPC: 2.485 (Simulation time: 00 hr 48 min 27 sec)
Heartbeat CPU 0 instructions: 130000003 cycles: 44444328 heartbeat IPC: 2.648 cumulative IPC: 2.504 (Simulation time: 00 hr 52 min 27 sec)
Heartbeat CPU 0 instructions: 140000002 cycles: 48579315 heartbeat IPC: 2.418 cumulative IPC: 2.495 (Simulation time: 00 hr 56 min 33 sec)
Heartbeat CPU 0 instructions: 150000001 cycles: 52632664 heartbeat IPC: 2.467 cumulative IPC: 2.492 (Simulation time: 01 hr 00 min 31 sec)
Heartbeat CPU 0 instructions: 160000000 cycles: 56291651 heartbeat IPC: 2.733 cumulative IPC: 2.512 (Simulation time: 01 hr 04 min 10 sec)
Heartbeat CPU 0 instructions: 170000001 cycles: 60472265 heartbeat IPC: 2.392 cumulative IPC: 2.501 (Simulation time: 01 hr 07 min 57 sec)
Heartbeat CPU 0 instructions: 180000001 cycles: 63937266 heartbeat IPC: 2.886 cumulative IPC: 2.527 (Simulation time: 01 hr 11 min 24 sec)
Heartbeat CPU 0 instructions: 190000002 cycles: 67527991 heartbeat IPC: 2.785 cumulative IPC: 2.544 (Simulation time: 01 hr 14 min 50 sec)
Heartbeat CPU 0 instructions: 200000002 cycles: 71313371 heartbeat IPC: 2.642 cumulative IPC: 2.55 (Simulation time: 01 hr 18 min 19 sec)
Heartbeat CPU 0 instructions: 210000000 cycles: 74955304 heartbeat IPC: 2.746 cumulative IPC: 2.562 (Simulation time: 01 hr 21 min 42 sec)
Heartbeat CPU 0 instructions: 220000001 cycles: 78829096 heartbeat IPC: 2.581 cumulative IPC: 2.563 (Simulation time: 01 hr 25 min 12 sec)
Heartbeat CPU 0 instructions: 230000002 cycles: 82672692 heartbeat IPC: 2.602 cumulative IPC: 2.565 (Simulation time: 01 hr 28 min 44 sec)
Heartbeat CPU 0 instructions: 240000001 cycles: 86884508 heartbeat IPC: 2.374 cumulative IPC: 2.554 (Simulation time: 01 hr 32 min 23 sec)
Heartbeat CPU 0 instructions: 250000003 cycles: 91457630 heartbeat IPC: 2.187 cumulative IPC: 2.533 (Simulation time: 01 hr 36 min 05 sec)
Heartbeat CPU 0 instructions: 260000000 cycles: 95254458 heartbeat IPC: 2.634 cumulative IPC: 2.538 (Simulation time: 01 hr 39 min 32 sec)
Heartbeat CPU 0 instructions: 270000003 cycles: 102379693 heartbeat IPC: 1.403 cumulative IPC: 2.448 (Simulation time: 01 hr 44 min 39 sec)
Heartbeat CPU 0 instructions: 280000000 cycles: 113229211 heartbeat IPC: 0.9217 cumulative IPC: 2.283 (Simulation time: 01 hr 51 min 43 sec)
Heartbeat CPU 0 instructions: 290000000 cycles: 124345710 heartbeat IPC: 0.8996 cumulative IPC: 2.146 (Simulation time: 01 hr 59 min 34 sec)
Heartbeat CPU 0 instructions: 300000003 cycles: 132568611 heartbeat IPC: 1.216 cumulative IPC: 2.082 (Simulation time: 02 hr 06 min 07 sec)
Heartbeat CPU 0 instructions: 310000004 cycles: 144628449 heartbeat IPC: 0.8292 cumulative IPC: 1.968 (Simulation time: 02 hr 14 min 35 sec)
Heartbeat CPU 0 instructions: 320000004 cycles: 150153496 heartbeat IPC: 1.81 cumulative IPC: 1.961 (Simulation time: 02 hr 19 min 30 sec)
Heartbeat CPU 0 instructions: 330000000 cycles: 154228857 heartbeat IPC: 2.454 cumulative IPC: 1.976 (Simulation time: 02 hr 23 min 33 sec)
Heartbeat CPU 0 instructions: 340000001 cycles: 158404052 heartbeat IPC: 2.395 cumulative IPC: 1.988 (Simulation time: 02 hr 27 min 37 sec)
Heartbeat CPU 0 instructions: 350000004 cycles: 162549109 heartbeat IPC: 2.413 cumulative IPC: 1.999 (Simulation time: 02 hr 31 min 42 sec)
Heartbeat CPU 0 instructions: 360000003 cycles: 166306620 heartbeat IPC: 2.661 cumulative IPC: 2.016 (Simulation time: 02 hr 35 min 33 sec)
Heartbeat CPU 0 instructions: 370000001 cycles: 169985539 heartbeat IPC: 2.718 cumulative IPC: 2.032 (Simulation time: 02 hr 39 min 23 sec)
Heartbeat CPU 0 instructions: 380000004 cycles: 173527223 heartbeat IPC: 2.824 cumulative IPC: 2.049 (Simulation time: 02 hr 43 min 08 sec)
Heartbeat CPU 0 instructions: 390000002 cycles: 177120173 heartbeat IPC: 2.783 cumulative IPC: 2.065 (Simulation time: 02 hr 46 min 55 sec)
Heartbeat CPU 0 instructions: 400000000 cycles: 180972105 heartbeat IPC: 2.596 cumulative IPC: 2.077 (Simulation time: 02 hr 50 min 51 sec)
Heartbeat CPU 0 instructions: 410000000 cycles: 187174009 heartbeat IPC: 1.612 cumulative IPC: 2.061 (Simulation time: 02 hr 56 min 07 sec)
Heartbeat CPU 0 instructions: 420000003 cycles: 194968823 heartbeat IPC: 1.283 cumulative IPC: 2.028 (Simulation time: 03 hr 02 min 09 sec)
Heartbeat CPU 0 instructions: 430000000 cycles: 203482025 heartbeat IPC: 1.175 cumulative IPC: 1.99 (Simulation time: 03 hr 08 min 46 sec)
Heartbeat CPU 0 instructions: 440000004 cycles: 211442559 heartbeat IPC: 1.256 cumulative IPC: 1.96 (Simulation time: 03 hr 14 min 48 sec)
Heartbeat CPU 0 instructions: 450000001 cycles: 219202644 heartbeat IPC: 1.289 cumulative IPC: 1.935 (Simulation time: 03 hr 20 min 41 sec)
Heartbeat CPU 0 instructions: 460000002 cycles: 231093931 heartbeat IPC: 0.841 cumulative IPC: 1.876 (Simulation time: 03 hr 28 min 03 sec)
Heartbeat CPU 0 instructions: 470000003 cycles: 241220202 heartbeat IPC: 0.9875 cumulative IPC: 1.836 (Simulation time: 03 hr 34 min 25 sec)
Heartbeat CPU 0 instructions: 480000003 cycles: 245476481 heartbeat IPC: 2.349 cumulative IPC: 1.846 (Simulation time: 03 hr 38 min 00 sec)
Heartbeat CPU 0 instructions: 490000001 cycles: 249665757 heartbeat IPC: 2.387 cumulative IPC: 1.855 (Simulation time: 03 hr 41 min 34 sec)
Heartbeat CPU 0 instructions: 500000002 cycles: 253452901 heartbeat IPC: 2.641 cumulative IPC: 1.868 (Simulation time: 03 hr 44 min 56 sec)
Heartbeat CPU 0 instructions: 510000000 cycles: 256990749 heartbeat IPC: 2.827 cumulative IPC: 1.881 (Simulation time: 03 hr 48 min 10 sec)
Heartbeat CPU 0 instructions: 520000000 cycles: 260640766 heartbeat IPC: 2.74 cumulative IPC: 1.894 (Simulation time: 03 hr 51 min 24 sec)
Heartbeat CPU 0 instructions: 530000001 cycles: 268993913 heartbeat IPC: 1.197 cumulative IPC: 1.871 (Simulation time: 03 hr 56 min 59 sec)
Heartbeat CPU 0 instructions: 540000000 cycles: 278917358 heartbeat IPC: 1.008 cumulative IPC: 1.839 (Simulation time: 04 hr 03 min 20 sec)
Heartbeat CPU 0 instructions: 550000004 cycles: 291678335 heartbeat IPC: 0.7836 cumulative IPC: 1.791 (Simulation time: 04 hr 11 min 03 sec)
Heartbeat CPU 0 instructions: 560000004 cycles: 296095337 heartbeat IPC: 2.264 cumulative IPC: 1.798 (Simulation time: 04 hr 14 min 46 sec)
Heartbeat CPU 0 instructions: 570000001 cycles: 299233114 heartbeat IPC: 3.187 cumulative IPC: 1.814 (Simulation time: 04 hr 17 min 56 sec)
Heartbeat CPU 0 instructions: 580000003 cycles: 302784644 heartbeat IPC: 2.816 cumulative IPC: 1.826 (Simulation time: 04 hr 21 min 13 sec)
Heartbeat CPU 0 instructions: 590000002 cycles: 306414020 heartbeat IPC: 2.755 cumulative IPC: 1.837 (Simulation time: 04 hr 24 min 28 sec)
Heartbeat CPU 0 instructions: 600000003 cycles: 309480368 heartbeat IPC: 3.261 cumulative IPC: 1.852 (Simulation time: 04 hr 27 min 27 sec)
Heartbeat CPU 0 instructions: 610000001 cycles: 312994045 heartbeat IPC: 2.846 cumulative IPC: 1.864 (Simulation time: 04 hr 30 min 27 sec)
Heartbeat CPU 0 instructions: 620000000 cycles: 317011996 heartbeat IPC: 2.489 cumulative IPC: 1.872 (Simulation time: 04 hr 33 min 37 sec)
Heartbeat CPU 0 instructions: 630000002 cycles: 320381063 heartbeat IPC: 2.968 cumulative IPC: 1.884 (Simulation time: 04 hr 36 min 35 sec)
Heartbeat CPU 0 instructions: 640000004 cycles: 324390390 heartbeat IPC: 2.494 cumulative IPC: 1.892 (Simulation time: 04 hr 39 min 29 sec)
Heartbeat CPU 0 instructions: 650000001 cycles: 328213715 heartbeat IPC: 2.616 cumulative IPC: 1.9 (Simulation time: 04 hr 42 min 05 sec)
Simulation finished CPU 0 instructions: 600000001 cycles: 315713654 cumulative IPC: 1.9 (Simulation time: 04 hr 42 min 05 sec)
Simulation complete CPU 0 instructions: 600000001 cycles: 315713654 cumulative IPC: 1.9 (Simulation time: 04 hr 42 min 05 sec)

ChampSim completed all CPUs

=== Simulation ===
CPU 0 runs traces/400.perlbench-50B.champsimtrace.xz
Region of Interest Statistics

CPU 0 cumulative IPC: 1.9 instructions: 600000001 cycles: 315713654
CPU 0 Branch Prediction Accuracy: 96.2% MPKI: 7.839 Average ROB Occupancy at Mispredict: 43.75
Branch type MPKI
BRANCH_DIRECT_JUMP: 0.0176
BRANCH_INDIRECT: 0.38
BRANCH_CONDITIONAL: 6.99
BRANCH_DIRECT_CALL: 0.0067
BRANCH_INDIRECT_CALL: 0.431
BRANCH_RETURN: 0.0161

LLC TOTAL        ACCESS:     784952 HIT:     530784 MISS:     254168
LLC LOAD         ACCESS:     587000 HIT:     383089 MISS:     203911
LLC RFO          ACCESS:      47577 HIT:      29860 MISS:      17717
LLC PREFETCH     ACCESS:          0 HIT:          0 MISS:          0
LLC WRITE        ACCESS:     128280 HIT:     110790 MISS:      17490
LLC TRANSLATION  ACCESS:      22095 HIT:       7045 MISS:      15050
LLC PREFETCH REQUESTED:          0 ISSUED:          0 USEFUL:          0 USELESS:          0
LLC AVERAGE MISS LATENCY: 480.1 cycles
cpu0_DTLB TOTAL        ACCESS:  146488220 HIT:  145181708 MISS:    1306512
cpu0_DTLB LOAD         ACCESS:  146488220 HIT:  145181708 MISS:    1306512
cpu0_DTLB RFO          ACCESS:          0 HIT:          0 MISS:          0
cpu0_DTLB PREFETCH     ACCESS:          0 HIT:          0 MISS:          0
cpu0_DTLB WRITE        ACCESS:          0 HIT:          0 MISS:          0
cpu0_DTLB TRANSLATION  ACCESS:          0 HIT:          0 MISS:          0
cpu0_DTLB PREFETCH REQUESTED:          0 ISSUED:          0 USEFUL:          0 USELESS:          0
cpu0_DTLB AVERAGE MISS LATENCY: 12.65 cycles
cpu0_ITLB TOTAL        ACCESS:    8986510 HIT:    8801945 MISS:     184565
cpu0_ITLB LOAD         ACCESS:    8986510 HIT:    8801945 MISS:     184565
cpu0_ITLB RFO          ACCESS:          0 HIT:          0 MISS:          0
cpu0_ITLB PREFETCH     ACCESS:          0 HIT:          0 MISS:          0
cpu0_ITLB WRITE        ACCESS:          0 HIT:          0 MISS:          0
cpu0_ITLB TRANSLATION  ACCESS:          0 HIT:          0 MISS:          0
cpu0_ITLB PREFETCH REQUESTED:          0 ISSUED:          0 USEFUL:          0 USELESS:          0
cpu0_ITLB AVERAGE MISS LATENCY: 3.648 cycles
cpu0_L1D TOTAL        ACCESS:  193262134 HIT:  189604550 MISS:    3657584
cpu0_L1D LOAD         ACCESS:  107417268 HIT:  104401305 MISS:    3015963
cpu0_L1D RFO          ACCESS:          0 HIT:          0 MISS:          0
cpu0_L1D PREFETCH     ACCESS:          0 HIT:          0 MISS:          0
cpu0_L1D WRITE        ACCESS:   85816352 HIT:   85201820 MISS:     614532
cpu0_L1D TRANSLATION  ACCESS:      28514 HIT:       1425 MISS:      27089
cpu0_L1D PREFETCH REQUESTED:          0 ISSUED:          0 USEFUL:          0 USELESS:          0
cpu0_L1D AVERAGE MISS LATENCY: 37.47 cycles
cpu0_L1I TOTAL        ACCESS:   10420942 HIT:    8659175 MISS:    1761767
cpu0_L1I LOAD         ACCESS:   10420942 HIT:    8659175 MISS:    1761767
cpu0_L1I RFO          ACCESS:          0 HIT:          0 MISS:          0
cpu0_L1I PREFETCH     ACCESS:          0 HIT:          0 MISS:          0
cpu0_L1I WRITE        ACCESS:          0 HIT:          0 MISS:          0
cpu0_L1I TRANSLATION  ACCESS:          0 HIT:          0 MISS:          0
cpu0_L1I PREFETCH REQUESTED:          0 ISSUED:          0 USEFUL:          0 USELESS:          0
cpu0_L1I AVERAGE MISS LATENCY: 13.94 cycles
cpu0_L2C TOTAL        ACCESS:    3834663 HIT:    3174723 MISS:     659940
cpu0_L2C LOAD         ACCESS:    3104994 HIT:    2517994 MISS:     587000
cpu0_L2C RFO          ACCESS:     191573 HIT:     143996 MISS:      47577
cpu0_L2C PREFETCH     ACCESS:          0 HIT:          0 MISS:          0
cpu0_L2C WRITE        ACCESS:     511077 HIT:     507809 MISS:       3268
cpu0_L2C TRANSLATION  ACCESS:      27019 HIT:       4924 MISS:      22095
cpu0_L2C PREFETCH REQUESTED:          0 ISSUED:          0 USEFUL:          0 USELESS:          0
cpu0_L2C AVERAGE MISS LATENCY: 205.2 cycles
cpu0_STLB TOTAL        ACCESS:    1008806 HIT:     982116 MISS:      26690
cpu0_STLB LOAD         ACCESS:    1008806 HIT:     982116 MISS:      26690
cpu0_STLB RFO          ACCESS:          0 HIT:          0 MISS:          0
cpu0_STLB PREFETCH     ACCESS:          0 HIT:          0 MISS:          0
cpu0_STLB WRITE        ACCESS:          0 HIT:          0 MISS:          0
cpu0_STLB TRANSLATION  ACCESS:          0 HIT:          0 MISS:          0
cpu0_STLB PREFETCH REQUESTED:          0 ISSUED:          0 USEFUL:          0 USELESS:          0
cpu0_STLB AVERAGE MISS LATENCY: 402.3 cycles

DRAM Statistics

Channel 0 RQ ROW_BUFFER_HIT:      41781
  ROW_BUFFER_MISS:     194825
 AVG DBUS CONGESTED CYCLE: 3.781
WQ ROW_BUFFER_HIT: Channel 0 
  ROW_BUFFER_MISS:       9505
  FULL:      24784
