WARNING: physical memory size is smaller than virtual memory size.

*** ChampSim Multicore Out-of-Order Simulator ***
Warmup Instructions: 50000000
Simulation Instructions: 600000000
Number of CPUs: 1
Page size: 4096

Off-chip DRAM Size: 4 GiB Channels: 1 Width: 64-bit Data Race: 3200 MT/s
Heartbeat CPU 0 instructions: 10000001 cycles: 2500318 heartbeat IPC: 3.999 cumulative IPC: 3.999 (Simulation time: 00 hr 03 min 46 sec)
Heartbeat CPU 0 instructions: 20000002 cycles: 5037128 heartbeat IPC: 3.942 cumulative IPC: 3.971 (Simulation time: 00 hr 07 min 21 sec)
Heartbeat CPU 0 instructions: 30000002 cycles: 7537128 heartbeat IPC: 4 cumulative IPC: 3.98 (Simulation time: 00 hr 10 min 47 sec)
Heartbeat CPU 0 instructions: 40000002 cycles: 10037128 heartbeat IPC: 4 cumulative IPC: 3.985 (Simulation time: 00 hr 14 min 12 sec)
Heartbeat CPU 0 instructions: 50000002 cycles: 12537128 heartbeat IPC: 4 cumulative IPC: 3.988 (Simulation time: 00 hr 17 min 25 sec)
Warmup finished CPU 0 instructions: 50000002 cycles: 12537129 cumulative IPC: 3.988 (Simulation time: 00 hr 17 min 25 sec)
Warmup complete CPU 0 instructions: 50000002 cycles: 12537129 cumulative IPC: 3.988 (Simulation time: 00 hr 17 min 25 sec)
Heartbeat CPU 0 instructions: 60000000 cycles: 17704413 heartbeat IPC: 1.935 cumulative IPC: 1.935 (Simulation time: 00 hr 22 min 35 sec)
Heartbeat CPU 0 instructions: 70000002 cycles: 22605658 heartbeat IPC: 2.04 cumulative IPC: 1.986 (Simulation time: 00 hr 27 min 29 sec)
Heartbeat CPU 0 instructions: 80000001 cycles: 27976629 heartbeat IPC: 1.862 cumulative IPC: 1.943 (Simulation time: 00 hr 32 min 52 sec)
Heartbeat CPU 0 instructions: 90000001 cycles: 32865083 heartbeat IPC: 2.046 cumulative IPC: 1.968 (Simulation time: 00 hr 37 min 45 sec)
Heartbeat CPU 0 instructions: 100000000 cycles: 37981766 heartbeat IPC: 1.954 cumulative IPC: 1.965 (Simulation time: 00 hr 42 min 45 sec)
Heartbeat CPU 0 instructions: 110000000 cycles: 42881079 heartbeat IPC: 2.041 cumulative IPC: 1.977 (Simulation time: 00 hr 47 min 38 sec)
Heartbeat CPU 0 instructions: 120000001 cycles: 48085823 heartbeat IPC: 1.921 cumulative IPC: 1.969 (Simulation time: 00 hr 52 min 42 sec)
Heartbeat CPU 0 instructions: 130000001 cycles: 53247758 heartbeat IPC: 1.937 cumulative IPC: 1.965 (Simulation time: 00 hr 57 min 45 sec)
Heartbeat CPU 0 instructions: 140000001 cycles: 58565739 heartbeat IPC: 1.88 cumulative IPC: 1.955 (Simulation time: 01 hr 02 min 52 sec)
Heartbeat CPU 0 instructions: 150000001 cycles: 63890880 heartbeat IPC: 1.878 cumulative IPC: 1.947 (Simulation time: 01 hr 07 min 59 sec)
Heartbeat CPU 0 instructions: 160000004 cycles: 69109114 heartbeat IPC: 1.916 cumulative IPC: 1.944 (Simulation time: 01 hr 13 min 03 sec)
Heartbeat CPU 0 instructions: 170000000 cycles: 77608758 heartbeat IPC: 1.177 cumulative IPC: 1.844 (Simulation time: 01 hr 20 min 14 sec)
Heartbeat CPU 0 instructions: 180000004 cycles: 84305308 heartbeat IPC: 1.493 cumulative IPC: 1.811 (Simulation time: 01 hr 26 min 35 sec)
Heartbeat CPU 0 instructions: 190000001 cycles: 91375410 heartbeat IPC: 1.414 cumulative IPC: 1.776 (Simulation time: 01 hr 33 min 04 sec)
Heartbeat CPU 0 instructions: 200000003 cycles: 96001407 heartbeat IPC: 2.162 cumulative IPC: 1.797 (Simulation time: 01 hr 37 min 52 sec)
Heartbeat CPU 0 instructions: 210000001 cycles: 100805540 heartbeat IPC: 2.082 cumulative IPC: 1.813 (Simulation time: 01 hr 42 min 46 sec)
Heartbeat CPU 0 instructions: 220000000 cycles: 105574300 heartbeat IPC: 2.097 cumulative IPC: 1.827 (Simulation time: 01 hr 47 min 36 sec)
Heartbeat CPU 0 instructions: 230000002 cycles: 110730913 heartbeat IPC: 1.939 cumulative IPC: 1.833 (Simulation time: 01 hr 52 min 37 sec)
Heartbeat CPU 0 instructions: 240000000 cycles: 115489206 heartbeat IPC: 2.102 cumulative IPC: 1.846 (Simulation time: 01 hr 57 min 31 sec)
Heartbeat CPU 0 instructions: 250000000 cycles: 120553341 heartbeat IPC: 1.975 cumulative IPC: 1.852 (Simulation time: 02 hr 02 min 33 sec)
Heartbeat CPU 0 instructions: 260000000 cycles: 125512519 heartbeat IPC: 2.016 cumulative IPC: 1.859 (Simulation time: 02 hr 07 min 30 sec)
Heartbeat CPU 0 instructions: 270000002 cycles: 130346991 heartbeat IPC: 2.068 cumulative IPC: 1.867 (Simulation time: 02 hr 12 min 24 sec)
Heartbeat CPU 0 instructions: 280000002 cycles: 135231123 heartbeat IPC: 2.047 cumulative IPC: 1.875 (Simulation time: 02 hr 17 min 18 sec)
Heartbeat CPU 0 instructions: 290000001 cycles: 140576078 heartbeat IPC: 1.871 cumulative IPC: 1.874 (Simulation time: 02 hr 22 min 27 sec)
Heartbeat CPU 0 instructions: 300000003 cycles: 145596214 heartbeat IPC: 1.992 cumulative IPC: 1.879 (Simulation time: 02 hr 27 min 30 sec)
Heartbeat CPU 0 instructions: 310000001 cycles: 150837687 heartbeat IPC: 1.908 cumulative IPC: 1.88 (Simulation time: 02 hr 32 min 35 sec)
Heartbeat CPU 0 instructions: 320000003 cycles: 156027565 heartbeat IPC: 1.927 cumulative IPC: 1.882 (Simulation time: 02 hr 37 min 40 sec)
Heartbeat CPU 0 instructions: 330000003 cycles: 161295984 heartbeat IPC: 1.898 cumulative IPC: 1.882 (Simulation time: 02 hr 42 min 47 sec)
Heartbeat CPU 0 instructions: 340000000 cycles: 169767773 heartbeat IPC: 1.18 cumulative IPC: 1.844 (Simulation time: 02 hr 49 min 57 sec)
Heartbeat CPU 0 instructions: 350000000 cycles: 176997701 heartbeat IPC: 1.383 cumulative IPC: 1.824 (Simulation time: 02 hr 56 min 31 sec)
Heartbeat CPU 0 instructions: 360000004 cycles: 184429415 heartbeat IPC: 1.346 cumulative IPC: 1.803 (Simulation time: 03 hr 03 min 05 sec)
Heartbeat CPU 0 instructions: 370000000 cycles: 188725559 heartbeat IPC: 2.328 cumulative IPC: 1.816 (Simulation time: 03 hr 07 min 39 sec)
Heartbeat CPU 0 instructions: 380000001 cycles: 193541223 heartbeat IPC: 2.077 cumulative IPC: 1.823 (Simulation time: 03 hr 12 min 30 sec)
Heartbeat CPU 0 instructions: 390000002 cycles: 198294387 heartbeat IPC: 2.104 cumulative IPC: 1.83 (Simulation time: 03 hr 17 min 19 sec)
Heartbeat CPU 0 instructions: 400000004 cycles: 203188337 heartbeat IPC: 2.043 cumulative IPC: 1.836 (Simulation time: 03 hr 22 min 16 sec)
Heartbeat CPU 0 instructions: 410000000 cycles: 207820203 heartbeat IPC: 2.159 cumulative IPC: 1.843 (Simulation time: 03 hr 27 min 03 sec)
Heartbeat CPU 0 instructions: 420000000 cycles: 212818012 heartbeat IPC: 2.001 cumulative IPC: 1.847 (Simulation time: 03 hr 32 min 07 sec)
Heartbeat CPU 0 instructions: 430000001 cycles: 217230945 heartbeat IPC: 2.266 cumulative IPC: 1.856 (Simulation time: 03 hr 36 min 49 sec)
Heartbeat CPU 0 instructions: 440000000 cycles: 222522572 heartbeat IPC: 1.89 cumulative IPC: 1.857 (Simulation time: 03 hr 41 min 57 sec)
Heartbeat CPU 0 instructions: 450000002 cycles: 227128809 heartbeat IPC: 2.171 cumulative IPC: 1.864 (Simulation time: 03 hr 46 min 45 sec)
Heartbeat CPU 0 instructions: 460000000 cycles: 231886392 heartbeat IPC: 2.102 cumulative IPC: 1.869 (Simulation time: 03 hr 51 min 34 sec)
Heartbeat CPU 0 instructions: 470000000 cycles: 236825645 heartbeat IPC: 2.025 cumulative IPC: 1.873 (Simulation time: 03 hr 56 min 29 sec)
Heartbeat CPU 0 instructions: 480000003 cycles: 241578085 heartbeat IPC: 2.104 cumulative IPC: 1.877 (Simulation time: 04 hr 01 min 18 sec)
Heartbeat CPU 0 instructions: 490000000 cycles: 246177748 heartbeat IPC: 2.174 cumulative IPC: 1.883 (Simulation time: 04 hr 06 min 03 sec)
Heartbeat CPU 0 instructions: 500000000 cycles: 251188848 heartbeat IPC: 1.996 cumulative IPC: 1.886 (Simulation time: 04 hr 11 min 01 sec)
Heartbeat CPU 0 instructions: 510000003 cycles: 256791911 heartbeat IPC: 1.785 cumulative IPC: 1.883 (Simulation time: 04 hr 16 min 19 sec)
Heartbeat CPU 0 instructions: 520000001 cycles: 261459586 heartbeat IPC: 2.142 cumulative IPC: 1.888 (Simulation time: 04 hr 21 min 07 sec)
Heartbeat CPU 0 instructions: 530000002 cycles: 266572533 heartbeat IPC: 1.956 cumulative IPC: 1.89 (Simulation time: 04 hr 26 min 09 sec)
Heartbeat CPU 0 instructions: 540000000 cycles: 271664415 heartbeat IPC: 1.964 cumulative IPC: 1.891 (Simulation time: 04 hr 31 min 09 sec)
Heartbeat CPU 0 instructions: 550000001 cycles: 276471323 heartbeat IPC: 2.08 cumulative IPC: 1.894 (Simulation time: 04 hr 36 min 03 sec)
Heartbeat CPU 0 instructions: 560000000 cycles: 281674483 heartbeat IPC: 1.922 cumulative IPC: 1.895 (Simulation time: 04 hr 41 min 04 sec)
Heartbeat CPU 0 instructions: 570000004 cycles: 288430500 heartbeat IPC: 1.48 cumulative IPC: 1.885 (Simulation time: 04 hr 47 min 11 sec)
Heartbeat CPU 0 instructions: 580000003 cycles: 296356798 heartbeat IPC: 1.262 cumulative IPC: 1.867 (Simulation time: 04 hr 54 min 19 sec)
Heartbeat CPU 0 instructions: 590000002 cycles: 304641097 heartbeat IPC: 1.207 cumulative IPC: 1.849 (Simulation time: 05 hr 01 min 38 sec)
Heartbeat CPU 0 instructions: 600000000 cycles: 309061076 heartbeat IPC: 2.262 cumulative IPC: 1.855 (Simulation time: 05 hr 06 min 31 sec)
Heartbeat CPU 0 instructions: 610000002 cycles: 313462964 heartbeat IPC: 2.272 cumulative IPC: 1.861 (Simulation time: 05 hr 11 min 26 sec)
Heartbeat CPU 0 instructions: 620000000 cycles: 318208797 heartbeat IPC: 2.107 cumulative IPC: 1.865 (Simulation time: 05 hr 16 min 22 sec)
Heartbeat CPU 0 instructions: 630000002 cycles: 323204155 heartbeat IPC: 2.002 cumulative IPC: 1.867 (Simulation time: 05 hr 21 min 28 sec)
Heartbeat CPU 0 instructions: 640000001 cycles: 328024521 heartbeat IPC: 2.075 cumulative IPC: 1.87 (Simulation time: 05 hr 26 min 41 sec)
Heartbeat CPU 0 instructions: 650000000 cycles: 332551091 heartbeat IPC: 2.209 cumulative IPC: 1.875 (Simulation time: 05 hr 31 min 31 sec)
Simulation finished CPU 0 instructions: 600000001 cycles: 320013964 cumulative IPC: 1.875 (Simulation time: 05 hr 31 min 31 sec)
Simulation complete CPU 0 instructions: 600000001 cycles: 320013964 cumulative IPC: 1.875 (Simulation time: 05 hr 31 min 31 sec)

ChampSim completed all CPUs

=== Simulation ===
CPU 0 runs traces/400.perlbench-41B.champsimtrace.xz
Region of Interest Statistics

CPU 0 cumulative IPC: 1.875 instructions: 600000001 cycles: 320013964
CPU 0 Branch Prediction Accuracy: 93.95% MPKI: 12.5 Average ROB Occupancy at Mispredict: 29.44
Branch type MPKI
BRANCH_DIRECT_JUMP: 0.0123
BRANCH_INDIRECT: 0.323
BRANCH_CONDITIONAL: 12
BRANCH_DIRECT_CALL: 0.0043
BRANCH_INDIRECT_CALL: 0.2
BRANCH_RETURN: 0.00828

LLC TOTAL        ACCESS:     541294 HIT:     421245 MISS:     120049
LLC LOAD         ACCESS:     403757 HIT:     307133 MISS:      96624
LLC RFO          ACCESS:      32600 HIT:      24563 MISS:       8037
LLC PREFETCH     ACCESS:          0 HIT:          0 MISS:          0
LLC WRITE        ACCESS:      85721 HIT:      79841 MISS:       5880
LLC TRANSLATION  ACCESS:      19216 HIT:       9708 MISS:       9508
LLC PREFETCH REQUESTED:          0 ISSUED:          0 USEFUL:          0 USELESS:          0
LLC AVERAGE MISS LATENCY: 495.4 cycles
cpu0_DTLB TOTAL        ACCESS:  153681640 HIT:  153004290 MISS:     677350
cpu0_DTLB LOAD         ACCESS:  153681640 HIT:  153004290 MISS:     677350
cpu0_DTLB RFO          ACCESS:          0 HIT:          0 MISS:          0
cpu0_DTLB PREFETCH     ACCESS:          0 HIT:          0 MISS:          0
cpu0_DTLB WRITE        ACCESS:          0 HIT:          0 MISS:          0
cpu0_DTLB TRANSLATION  ACCESS:          0 HIT:          0 MISS:          0
cpu0_DTLB PREFETCH REQUESTED:          0 ISSUED:          0 USEFUL:          0 USELESS:          0
cpu0_DTLB AVERAGE MISS LATENCY: 13.65 cycles
cpu0_ITLB TOTAL        ACCESS:    4839299 HIT:    4781438 MISS:      57861
cpu0_ITLB LOAD         ACCESS:    4839299 HIT:    4781438 MISS:      57861
cpu0_ITLB RFO          ACCESS:          0 HIT:          0 MISS:          0
cpu0_ITLB PREFETCH     ACCESS:          0 HIT:          0 MISS:          0
cpu0_ITLB WRITE        ACCESS:          0 HIT:          0 MISS:          0
cpu0_ITLB TRANSLATION  ACCESS:          0 HIT:          0 MISS:          0
cpu0_ITLB PREFETCH REQUESTED:          0 ISSUED:          0 USEFUL:          0 USELESS:          0
cpu0_ITLB AVERAGE MISS LATENCY: 5.484 cycles
cpu0_L1D TOTAL        ACCESS:  200301087 HIT:  198607668 MISS:    1693419
cpu0_L1D LOAD         ACCESS:  117058315 HIT:  115739438 MISS:    1318877
cpu0_L1D RFO          ACCESS:          0 HIT:          0 MISS:          0
cpu0_L1D PREFETCH     ACCESS:          0 HIT:          0 MISS:          0
cpu0_L1D WRITE        ACCESS:   83218309 HIT:   82867190 MISS:     351119
cpu0_L1D TRANSLATION  ACCESS:      24463 HIT:       1040 MISS:      23423
cpu0_L1D PREFETCH REQUESTED:          0 ISSUED:          0 USEFUL:          0 USELESS:          0
cpu0_L1D AVERAGE MISS LATENCY: 43.1 cycles
cpu0_L1I TOTAL        ACCESS:    5581521 HIT:    4819989 MISS:     761532
cpu0_L1I LOAD         ACCESS:    5581521 HIT:    4819989 MISS:     761532
cpu0_L1I RFO          ACCESS:          0 HIT:          0 MISS:          0
cpu0_L1I PREFETCH     ACCESS:          0 HIT:          0 MISS:          0
cpu0_L1I WRITE        ACCESS:          0 HIT:          0 MISS:          0
cpu0_L1I TRANSLATION  ACCESS:          0 HIT:          0 MISS:          0
cpu0_L1I PREFETCH REQUESTED:          0 ISSUED:          0 USEFUL:          0 USELESS:          0
cpu0_L1I AVERAGE MISS LATENCY: 8.922 cycles
cpu0_L2C TOTAL        ACCESS:    1667980 HIT:    1210586 MISS:     457394
cpu0_L2C LOAD         ACCESS:    1317132 HIT:     913375 MISS:     403757
cpu0_L2C RFO          ACCESS:      88608 HIT:      56008 MISS:      32600
cpu0_L2C PREFETCH     ACCESS:          0 HIT:          0 MISS:          0
cpu0_L2C WRITE        ACCESS:     238897 HIT:     237076 MISS:       1821
cpu0_L2C TRANSLATION  ACCESS:      23343 HIT:       4127 MISS:      19216
cpu0_L2C PREFETCH REQUESTED:          0 ISSUED:          0 USEFUL:          0 USELESS:          0
cpu0_L2C AVERAGE MISS LATENCY: 150.2 cycles
cpu0_STLB TOTAL        ACCESS:     505100 HIT:     482311 MISS:      22789
cpu0_STLB LOAD         ACCESS:     505100 HIT:     482311 MISS:      22789
cpu0_STLB RFO          ACCESS:          0 HIT:          0 MISS:          0
cpu0_STLB PREFETCH     ACCESS:          0 HIT:          0 MISS:          0
cpu0_STLB WRITE        ACCESS:          0 HIT:          0 MISS:          0
cpu0_STLB TRANSLATION  ACCESS:          0 HIT:          0 MISS:          0
cpu0_STLB PREFETCH REQUESTED:          0 ISSUED:          0 USEFUL:          0 USELESS:          0
cpu0_STLB AVERAGE MISS LATENCY: 276.6 cycles

DRAM Statistics

Channel 0 RQ ROW_BUFFER_HIT:      20846
  ROW_BUFFER_MISS:      93297
 AVG DBUS CONGESTED CYCLE: 3.755
WQ ROW_BUFFER_HIT: Channel 0 
  ROW_BUFFER_MISS:       5375
  FULL:       9583
