WARNING: physical memory size is smaller than virtual memory size.

*** ChampSim Multicore Out-of-Order Simulator ***
Warmup Instructions: 50000000
Simulation Instructions: 600000000
Number of CPUs: 1
Page size: 4096

Off-chip DRAM Size: 4 GiB Channels: 1 Width: 64-bit Data Race: 3200 MT/s
Heartbeat CPU 0 instructions: 10000000 cycles: 2500061 heartbeat IPC: 4 cumulative IPC: 4 (Simulation time: 00 hr 00 min 47 sec)
Heartbeat CPU 0 instructions: 20000000 cycles: 5000061 heartbeat IPC: 4 cumulative IPC: 4 (Simulation time: 00 hr 01 min 31 sec)
Heartbeat CPU 0 instructions: 30000000 cycles: 7500061 heartbeat IPC: 4 cumulative IPC: 4 (Simulation time: 00 hr 02 min 20 sec)
Heartbeat CPU 0 instructions: 40000000 cycles: 10000061 heartbeat IPC: 4 cumulative IPC: 4 (Simulation time: 00 hr 03 min 07 sec)
Heartbeat CPU 0 instructions: 50000000 cycles: 12500061 heartbeat IPC: 4 cumulative IPC: 4 (Simulation time: 00 hr 03 min 56 sec)
Warmup finished CPU 0 instructions: 50000000 cycles: 12500062 cumulative IPC: 4 (Simulation time: 00 hr 03 min 56 sec)
Warmup complete CPU 0 instructions: 50000000 cycles: 12500062 cumulative IPC: 4 (Simulation time: 00 hr 03 min 56 sec)
Heartbeat CPU 0 instructions: 60000002 cycles: 16897168 heartbeat IPC: 2.274 cumulative IPC: 2.274 (Simulation time: 00 hr 05 min 02 sec)
Heartbeat CPU 0 instructions: 70000003 cycles: 21874323 heartbeat IPC: 2.009 cumulative IPC: 2.134 (Simulation time: 00 hr 06 min 17 sec)
Heartbeat CPU 0 instructions: 80000001 cycles: 27217652 heartbeat IPC: 1.871 cumulative IPC: 2.038 (Simulation time: 00 hr 07 min 28 sec)
Heartbeat CPU 0 instructions: 90000000 cycles: 31512174 heartbeat IPC: 2.329 cumulative IPC: 2.104 (Simulation time: 00 hr 08 min 28 sec)
Heartbeat CPU 0 instructions: 100000003 cycles: 36360283 heartbeat IPC: 2.063 cumulative IPC: 2.096 (Simulation time: 00 hr 09 min 31 sec)
Heartbeat CPU 0 instructions: 110000002 cycles: 41223823 heartbeat IPC: 2.056 cumulative IPC: 2.089 (Simulation time: 00 hr 10 min 32 sec)
Heartbeat CPU 0 instructions: 120000001 cycles: 46216185 heartbeat IPC: 2.003 cumulative IPC: 2.076 (Simulation time: 00 hr 11 min 33 sec)
Heartbeat CPU 0 instructions: 130000003 cycles: 50774631 heartbeat IPC: 2.194 cumulative IPC: 2.09 (Simulation time: 00 hr 12 min 29 sec)
Heartbeat CPU 0 instructions: 140000002 cycles: 55657500 heartbeat IPC: 2.048 cumulative IPC: 2.085 (Simulation time: 00 hr 13 min 27 sec)
Heartbeat CPU 0 instructions: 150000001 cycles: 60315882 heartbeat IPC: 2.147 cumulative IPC: 2.091 (Simulation time: 00 hr 14 min 24 sec)
Heartbeat CPU 0 instructions: 160000000 cycles: 64944965 heartbeat IPC: 2.16 cumulative IPC: 2.097 (Simulation time: 00 hr 15 min 21 sec)
Heartbeat CPU 0 instructions: 170000000 cycles: 70269944 heartbeat IPC: 1.878 cumulative IPC: 2.077 (Simulation time: 00 hr 16 min 22 sec)
Heartbeat CPU 0 instructions: 180000001 cycles: 75985244 heartbeat IPC: 1.75 cumulative IPC: 2.048 (Simulation time: 00 hr 17 min 25 sec)
Heartbeat CPU 0 instructions: 190000002 cycles: 80446549 heartbeat IPC: 2.241 cumulative IPC: 2.06 (Simulation time: 00 hr 18 min 22 sec)
Heartbeat CPU 0 instructions: 200000002 cycles: 85337187 heartbeat IPC: 2.045 cumulative IPC: 2.059 (Simulation time: 00 hr 19 min 19 sec)
Heartbeat CPU 0 instructions: 210000000 cycles: 90334775 heartbeat IPC: 2.001 cumulative IPC: 2.056 (Simulation time: 00 hr 20 min 18 sec)
Heartbeat CPU 0 instructions: 220000001 cycles: 95256096 heartbeat IPC: 2.032 cumulative IPC: 2.054 (Simulation time: 00 hr 21 min 17 sec)
Heartbeat CPU 0 instructions: 230000002 cycles: 100493367 heartbeat IPC: 1.909 cumulative IPC: 2.046 (Simulation time: 00 hr 22 min 17 sec)
Heartbeat CPU 0 instructions: 240000001 cycles: 105450230 heartbeat IPC: 2.017 cumulative IPC: 2.044 (Simulation time: 00 hr 23 min 16 sec)
Heartbeat CPU 0 instructions: 250000003 cycles: 110619443 heartbeat IPC: 1.935 cumulative IPC: 2.038 (Simulation time: 00 hr 24 min 14 sec)
Heartbeat CPU 0 instructions: 260000001 cycles: 115478521 heartbeat IPC: 2.058 cumulative IPC: 2.039 (Simulation time: 00 hr 25 min 13 sec)
Heartbeat CPU 0 instructions: 270000000 cycles: 122730853 heartbeat IPC: 1.379 cumulative IPC: 1.996 (Simulation time: 00 hr 26 min 28 sec)
Heartbeat CPU 0 instructions: 280000000 cycles: 133105555 heartbeat IPC: 0.9639 cumulative IPC: 1.907 (Simulation time: 00 hr 28 min 06 sec)
Heartbeat CPU 0 instructions: 290000001 cycles: 142285327 heartbeat IPC: 1.089 cumulative IPC: 1.849 (Simulation time: 00 hr 29 min 38 sec)
Heartbeat CPU 0 instructions: 300000003 cycles: 149600757 heartbeat IPC: 1.367 cumulative IPC: 1.823 (Simulation time: 00 hr 30 min 58 sec)
Heartbeat CPU 0 instructions: 310000004 cycles: 159708236 heartbeat IPC: 0.9894 cumulative IPC: 1.766 (Simulation time: 00 hr 32 min 36 sec)
Heartbeat CPU 0 instructions: 320000004 cycles: 165287057 heartbeat IPC: 1.792 cumulative IPC: 1.767 (Simulation time: 00 hr 33 min 43 sec)
Heartbeat CPU 0 instructions: 330000000 cycles: 170570621 heartbeat IPC: 1.893 cumulative IPC: 1.771 (Simulation time: 00 hr 34 min 45 sec)
Heartbeat CPU 0 instructions: 340000001 cycles: 175756928 heartbeat IPC: 1.928 cumulative IPC: 1.776 (Simulation time: 00 hr 35 min 47 sec)
Heartbeat CPU 0 instructions: 350000000 cycles: 181145108 heartbeat IPC: 1.856 cumulative IPC: 1.779 (Simulation time: 00 hr 36 min 50 sec)
Heartbeat CPU 0 instructions: 360000003 cycles: 186311934 heartbeat IPC: 1.935 cumulative IPC: 1.784 (Simulation time: 00 hr 37 min 51 sec)
Heartbeat CPU 0 instructions: 370000001 cycles: 191385028 heartbeat IPC: 1.971 cumulative IPC: 1.789 (Simulation time: 00 hr 38 min 52 sec)
Heartbeat CPU 0 instructions: 380000004 cycles: 196750946 heartbeat IPC: 1.864 cumulative IPC: 1.791 (Simulation time: 00 hr 39 min 53 sec)
Heartbeat CPU 0 instructions: 390000002 cycles: 202156981 heartbeat IPC: 1.85 cumulative IPC: 1.793 (Simulation time: 00 hr 40 min 57 sec)
Heartbeat CPU 0 instructions: 400000000 cycles: 207643001 heartbeat IPC: 1.823 cumulative IPC: 1.794 (Simulation time: 00 hr 42 min 01 sec)
Heartbeat CPU 0 instructions: 410000000 cycles: 215466255 heartbeat IPC: 1.278 cumulative IPC: 1.774 (Simulation time: 00 hr 43 min 21 sec)
Heartbeat CPU 0 instructions: 420000001 cycles: 226114237 heartbeat IPC: 0.9391 cumulative IPC: 1.732 (Simulation time: 00 hr 45 min 02 sec)
Heartbeat CPU 0 instructions: 430000000 cycles: 233516584 heartbeat IPC: 1.351 cumulative IPC: 1.719 (Simulation time: 00 hr 46 min 24 sec)
Heartbeat CPU 0 instructions: 440000002 cycles: 240532816 heartbeat IPC: 1.425 cumulative IPC: 1.71 (Simulation time: 00 hr 47 min 42 sec)
Heartbeat CPU 0 instructions: 450000001 cycles: 247399717 heartbeat IPC: 1.456 cumulative IPC: 1.703 (Simulation time: 00 hr 48 min 59 sec)
Heartbeat CPU 0 instructions: 460000002 cycles: 257396517 heartbeat IPC: 1 cumulative IPC: 1.674 (Simulation time: 00 hr 50 min 36 sec)
Heartbeat CPU 0 instructions: 470000000 cycles: 266733410 heartbeat IPC: 1.071 cumulative IPC: 1.652 (Simulation time: 00 hr 52 min 08 sec)
Heartbeat CPU 0 instructions: 480000000 cycles: 272167322 heartbeat IPC: 1.84 cumulative IPC: 1.656 (Simulation time: 00 hr 53 min 11 sec)
Heartbeat CPU 0 instructions: 490000001 cycles: 277898837 heartbeat IPC: 1.745 cumulative IPC: 1.658 (Simulation time: 00 hr 54 min 16 sec)
Heartbeat CPU 0 instructions: 500000002 cycles: 283507810 heartbeat IPC: 1.783 cumulative IPC: 1.66 (Simulation time: 00 hr 55 min 20 sec)
Heartbeat CPU 0 instructions: 510000000 cycles: 289241635 heartbeat IPC: 1.744 cumulative IPC: 1.662 (Simulation time: 00 hr 56 min 25 sec)
Heartbeat CPU 0 instructions: 520000000 cycles: 295034881 heartbeat IPC: 1.726 cumulative IPC: 1.664 (Simulation time: 00 hr 57 min 31 sec)
Heartbeat CPU 0 instructions: 530000001 cycles: 305966303 heartbeat IPC: 0.9148 cumulative IPC: 1.636 (Simulation time: 00 hr 59 min 13 sec)
Heartbeat CPU 0 instructions: 540000000 cycles: 316112604 heartbeat IPC: 0.9856 cumulative IPC: 1.614 (Simulation time: 01 hr 00 min 51 sec)
Heartbeat CPU 0 instructions: 550000002 cycles: 328083890 heartbeat IPC: 0.8353 cumulative IPC: 1.584 (Simulation time: 01 hr 02 min 37 sec)
Heartbeat CPU 0 instructions: 560000004 cycles: 332815592 heartbeat IPC: 2.113 cumulative IPC: 1.592 (Simulation time: 01 hr 03 min 33 sec)
Heartbeat CPU 0 instructions: 570000001 cycles: 337223695 heartbeat IPC: 2.269 cumulative IPC: 1.601 (Simulation time: 01 hr 04 min 27 sec)
Heartbeat CPU 0 instructions: 580000003 cycles: 341459845 heartbeat IPC: 2.361 cumulative IPC: 1.611 (Simulation time: 01 hr 05 min 16 sec)
Heartbeat CPU 0 instructions: 590000001 cycles: 346362616 heartbeat IPC: 2.04 cumulative IPC: 1.617 (Simulation time: 01 hr 06 min 07 sec)
Heartbeat CPU 0 instructions: 600000003 cycles: 350995914 heartbeat IPC: 2.158 cumulative IPC: 1.625 (Simulation time: 01 hr 06 min 57 sec)
Heartbeat CPU 0 instructions: 610000001 cycles: 355854718 heartbeat IPC: 2.058 cumulative IPC: 1.631 (Simulation time: 01 hr 07 min 42 sec)
Heartbeat CPU 0 instructions: 620000000 cycles: 360918077 heartbeat IPC: 1.975 cumulative IPC: 1.636 (Simulation time: 01 hr 08 min 23 sec)
Heartbeat CPU 0 instructions: 630000002 cycles: 365157572 heartbeat IPC: 2.359 cumulative IPC: 1.645 (Simulation time: 01 hr 08 min 55 sec)
Heartbeat CPU 0 instructions: 640000004 cycles: 370475182 heartbeat IPC: 1.881 cumulative IPC: 1.648 (Simulation time: 01 hr 09 min 27 sec)
Heartbeat CPU 0 instructions: 650000001 cycles: 375237005 heartbeat IPC: 2.1 cumulative IPC: 1.654 (Simulation time: 01 hr 09 min 54 sec)
Simulation finished CPU 0 instructions: 600000001 cycles: 362736944 cumulative IPC: 1.654 (Simulation time: 01 hr 09 min 54 sec)
Simulation complete CPU 0 instructions: 600000001 cycles: 362736944 cumulative IPC: 1.654 (Simulation time: 01 hr 09 min 54 sec)

ChampSim completed all CPUs

=== Simulation ===
CPU 0 runs traces/400.perlbench-50B.champsimtrace.xz
Region of Interest Statistics

CPU 0 cumulative IPC: 1.654 instructions: 600000001 cycles: 362736944
CPU 0 Branch Prediction Accuracy: 93.83% MPKI: 12.71 Average ROB Occupancy at Mispredict: 29.35
Branch type MPKI
BRANCH_DIRECT_JUMP: 0.0176
BRANCH_INDIRECT: 0.38
BRANCH_CONDITIONAL: 11.9
BRANCH_DIRECT_CALL: 0.0067
BRANCH_INDIRECT_CALL: 0.431
BRANCH_RETURN: 0.0161

LLC TOTAL        ACCESS:    1371925 HIT:     932169 MISS:     439756
LLC LOAD         ACCESS:     586745 HIT:     386783 MISS:     199962
LLC RFO          ACCESS:      48062 HIT:      30997 MISS:      17065
LLC PREFETCH     ACCESS:     586745 HIT:     378796 MISS:     207949
LLC WRITE        ACCESS:     128281 HIT:     124362 MISS:       3919
LLC TRANSLATION  ACCESS:      22092 HIT:      11231 MISS:      10861
LLC PREFETCH REQUESTED:     586745 ISSUED:     586745 USEFUL:      70546 USELESS:      48629
LLC AVERAGE MISS LATENCY: 517.1 cycles
cpu0_DTLB TOTAL        ACCESS:  156784081 HIT:  155482371 MISS:    1301710
cpu0_DTLB LOAD         ACCESS:  156784081 HIT:  155482371 MISS:    1301710
cpu0_DTLB RFO          ACCESS:          0 HIT:          0 MISS:          0
cpu0_DTLB PREFETCH     ACCESS:          0 HIT:          0 MISS:          0
cpu0_DTLB WRITE        ACCESS:          0 HIT:          0 MISS:          0
cpu0_DTLB TRANSLATION  ACCESS:          0 HIT:          0 MISS:          0
cpu0_DTLB PREFETCH REQUESTED:          0 ISSUED:          0 USEFUL:          0 USELESS:          0
cpu0_DTLB AVERAGE MISS LATENCY: 11.74 cycles
cpu0_ITLB TOTAL        ACCESS:    8931662 HIT:    8733062 MISS:     198600
cpu0_ITLB LOAD         ACCESS:    8931662 HIT:    8733062 MISS:     198600
cpu0_ITLB RFO          ACCESS:          0 HIT:          0 MISS:          0
cpu0_ITLB PREFETCH     ACCESS:          0 HIT:          0 MISS:          0
cpu0_ITLB WRITE        ACCESS:          0 HIT:          0 MISS:          0
cpu0_ITLB TRANSLATION  ACCESS:          0 HIT:          0 MISS:          0
cpu0_ITLB PREFETCH REQUESTED:          0 ISSUED:          0 USEFUL:          0 USELESS:          0
cpu0_ITLB AVERAGE MISS LATENCY: 3.012 cycles
cpu0_L1D TOTAL        ACCESS:  203634851 HIT:  199967146 MISS:    3667705
cpu0_L1D LOAD         ACCESS:  117957888 HIT:  114945254 MISS:    3012634
cpu0_L1D RFO          ACCESS:          0 HIT:          0 MISS:          0
cpu0_L1D PREFETCH     ACCESS:          0 HIT:          0 MISS:          0
cpu0_L1D WRITE        ACCESS:   85648422 HIT:   85020486 MISS:     627936
cpu0_L1D TRANSLATION  ACCESS:      28541 HIT:       1406 MISS:      27135
cpu0_L1D PREFETCH REQUESTED:          0 ISSUED:          0 USEFUL:          0 USELESS:          0
cpu0_L1D AVERAGE MISS LATENCY: 41.15 cycles
cpu0_L1I TOTAL        ACCESS:   10370518 HIT:    8573391 MISS:    1797127
cpu0_L1I LOAD         ACCESS:   10370518 HIT:    8573391 MISS:    1797127
cpu0_L1I RFO          ACCESS:          0 HIT:          0 MISS:          0
cpu0_L1I PREFETCH     ACCESS:          0 HIT:          0 MISS:          0
cpu0_L1I WRITE        ACCESS:          0 HIT:          0 MISS:          0
cpu0_L1I TRANSLATION  ACCESS:          0 HIT:          0 MISS:          0
cpu0_L1I PREFETCH REQUESTED:          0 ISSUED:          0 USEFUL:          0 USELESS:          0
cpu0_L1I AVERAGE MISS LATENCY: 9.893 cycles
cpu0_L2C TOTAL        ACCESS:    3837151 HIT:    3176858 MISS:     660293
cpu0_L2C LOAD         ACCESS:    3106374 HIT:    2519629 MISS:     586745
cpu0_L2C RFO          ACCESS:     191829 HIT:     143767 MISS:      48062
cpu0_L2C PREFETCH     ACCESS:          0 HIT:          0 MISS:          0
cpu0_L2C WRITE        ACCESS:     511895 HIT:     508501 MISS:       3394
cpu0_L2C TRANSLATION  ACCESS:      27053 HIT:       4961 MISS:      22092
cpu0_L2C PREFETCH REQUESTED:          0 ISSUED:          0 USEFUL:          0 USELESS:          0
cpu0_L2C AVERAGE MISS LATENCY: 215.6 cycles
cpu0_STLB TOTAL        ACCESS:    1009234 HIT:     982543 MISS:      26691
cpu0_STLB LOAD         ACCESS:    1009234 HIT:     982543 MISS:      26691
cpu0_STLB RFO          ACCESS:          0 HIT:          0 MISS:          0
cpu0_STLB PREFETCH     ACCESS:          0 HIT:          0 MISS:          0
cpu0_STLB WRITE        ACCESS:          0 HIT:          0 MISS:          0
cpu0_STLB TRANSLATION  ACCESS:          0 HIT:          0 MISS:          0
cpu0_STLB PREFETCH REQUESTED:          0 ISSUED:          0 USEFUL:          0 USELESS:          0
cpu0_STLB AVERAGE MISS LATENCY: 350.3 cycles

DRAM Statistics

Channel 0 RQ ROW_BUFFER_HIT:      88695
  ROW_BUFFER_MISS:     282999
 AVG DBUS CONGESTED CYCLE: 3.844
WQ ROW_BUFFER_HIT: Channel 0 
  ROW_BUFFER_MISS:       6216
  FULL:      30077
