WARNING: physical memory size is smaller than virtual memory size.

*** ChampSim Multicore Out-of-Order Simulator ***
Warmup Instructions: 50000000
Simulation Instructions: 600000000
Number of CPUs: 1
Page size: 4096

Off-chip DRAM Size: 4 GiB Channels: 1 Width: 64-bit Data Race: 3200 MT/s
Heartbeat CPU 0 instructions: 10000001 cycles: 2500318 heartbeat IPC: 3.999 cumulative IPC: 3.999 (Simulation time: 00 hr 03 min 46 sec)
Heartbeat CPU 0 instructions: 20000002 cycles: 5037115 heartbeat IPC: 3.942 cumulative IPC: 3.971 (Simulation time: 00 hr 07 min 27 sec)
Heartbeat CPU 0 instructions: 30000002 cycles: 7537115 heartbeat IPC: 4 cumulative IPC: 3.98 (Simulation time: 00 hr 10 min 39 sec)
Heartbeat CPU 0 instructions: 40000002 cycles: 10037115 heartbeat IPC: 4 cumulative IPC: 3.985 (Simulation time: 00 hr 14 min 03 sec)
Heartbeat CPU 0 instructions: 50000002 cycles: 12537115 heartbeat IPC: 4 cumulative IPC: 3.988 (Simulation time: 00 hr 17 min 15 sec)
Warmup finished CPU 0 instructions: 50000002 cycles: 12537116 cumulative IPC: 3.988 (Simulation time: 00 hr 17 min 15 sec)
Warmup complete CPU 0 instructions: 50000002 cycles: 12537116 cumulative IPC: 3.988 (Simulation time: 00 hr 17 min 15 sec)
Heartbeat CPU 0 instructions: 60000000 cycles: 17713315 heartbeat IPC: 1.932 cumulative IPC: 1.932 (Simulation time: 00 hr 22 min 29 sec)
Heartbeat CPU 0 instructions: 70000002 cycles: 22620067 heartbeat IPC: 2.038 cumulative IPC: 1.984 (Simulation time: 00 hr 27 min 26 sec)
Heartbeat CPU 0 instructions: 80000001 cycles: 27995226 heartbeat IPC: 1.86 cumulative IPC: 1.941 (Simulation time: 00 hr 32 min 35 sec)
Heartbeat CPU 0 instructions: 90000001 cycles: 32874027 heartbeat IPC: 2.05 cumulative IPC: 1.967 (Simulation time: 00 hr 37 min 30 sec)
Heartbeat CPU 0 instructions: 100000000 cycles: 37994702 heartbeat IPC: 1.953 cumulative IPC: 1.964 (Simulation time: 00 hr 42 min 31 sec)
Heartbeat CPU 0 instructions: 110000000 cycles: 42880881 heartbeat IPC: 2.047 cumulative IPC: 1.977 (Simulation time: 00 hr 47 min 26 sec)
Heartbeat CPU 0 instructions: 120000001 cycles: 48079440 heartbeat IPC: 1.924 cumulative IPC: 1.969 (Simulation time: 00 hr 52 min 28 sec)
Heartbeat CPU 0 instructions: 130000001 cycles: 53247549 heartbeat IPC: 1.935 cumulative IPC: 1.965 (Simulation time: 00 hr 57 min 33 sec)
Heartbeat CPU 0 instructions: 140000001 cycles: 58577784 heartbeat IPC: 1.876 cumulative IPC: 1.955 (Simulation time: 01 hr 02 min 39 sec)
Heartbeat CPU 0 instructions: 150000001 cycles: 63901880 heartbeat IPC: 1.878 cumulative IPC: 1.947 (Simulation time: 01 hr 07 min 47 sec)
Heartbeat CPU 0 instructions: 160000004 cycles: 69128138 heartbeat IPC: 1.913 cumulative IPC: 1.944 (Simulation time: 01 hr 12 min 53 sec)
Heartbeat CPU 0 instructions: 170000000 cycles: 77565621 heartbeat IPC: 1.185 cumulative IPC: 1.845 (Simulation time: 01 hr 20 min 07 sec)
Heartbeat CPU 0 instructions: 180000004 cycles: 84469358 heartbeat IPC: 1.448 cumulative IPC: 1.807 (Simulation time: 01 hr 26 min 33 sec)
Heartbeat CPU 0 instructions: 190000001 cycles: 93124230 heartbeat IPC: 1.155 cumulative IPC: 1.737 (Simulation time: 01 hr 33 min 57 sec)
Heartbeat CPU 0 instructions: 200000003 cycles: 97858962 heartbeat IPC: 2.112 cumulative IPC: 1.758 (Simulation time: 01 hr 38 min 47 sec)
Heartbeat CPU 0 instructions: 210000001 cycles: 102747136 heartbeat IPC: 2.046 cumulative IPC: 1.774 (Simulation time: 01 hr 43 min 44 sec)
Heartbeat CPU 0 instructions: 220000000 cycles: 107561266 heartbeat IPC: 2.077 cumulative IPC: 1.789 (Simulation time: 01 hr 48 min 39 sec)
Heartbeat CPU 0 instructions: 230000002 cycles: 112853253 heartbeat IPC: 1.89 cumulative IPC: 1.794 (Simulation time: 01 hr 53 min 45 sec)
Heartbeat CPU 0 instructions: 240000000 cycles: 117696248 heartbeat IPC: 2.065 cumulative IPC: 1.807 (Simulation time: 01 hr 58 min 39 sec)
Heartbeat CPU 0 instructions: 250000000 cycles: 122846982 heartbeat IPC: 1.941 cumulative IPC: 1.813 (Simulation time: 02 hr 03 min 42 sec)
Heartbeat CPU 0 instructions: 260000000 cycles: 127864764 heartbeat IPC: 1.993 cumulative IPC: 1.821 (Simulation time: 02 hr 08 min 39 sec)
Heartbeat CPU 0 instructions: 270000002 cycles: 132752289 heartbeat IPC: 2.046 cumulative IPC: 1.83 (Simulation time: 02 hr 13 min 33 sec)
Heartbeat CPU 0 instructions: 280000002 cycles: 137662736 heartbeat IPC: 2.036 cumulative IPC: 1.838 (Simulation time: 02 hr 18 min 27 sec)
Heartbeat CPU 0 instructions: 290000001 cycles: 143032919 heartbeat IPC: 1.862 cumulative IPC: 1.839 (Simulation time: 02 hr 23 min 39 sec)
Heartbeat CPU 0 instructions: 300000003 cycles: 148101579 heartbeat IPC: 1.973 cumulative IPC: 1.844 (Simulation time: 02 hr 28 min 45 sec)
Heartbeat CPU 0 instructions: 310000001 cycles: 153408347 heartbeat IPC: 1.884 cumulative IPC: 1.846 (Simulation time: 02 hr 33 min 54 sec)
Heartbeat CPU 0 instructions: 320000003 cycles: 158630147 heartbeat IPC: 1.915 cumulative IPC: 1.848 (Simulation time: 02 hr 38 min 59 sec)
Heartbeat CPU 0 instructions: 330000003 cycles: 163945889 heartbeat IPC: 1.881 cumulative IPC: 1.849 (Simulation time: 02 hr 44 min 06 sec)
Heartbeat CPU 0 instructions: 340000000 cycles: 172555007 heartbeat IPC: 1.162 cumulative IPC: 1.812 (Simulation time: 02 hr 51 min 22 sec)
Heartbeat CPU 0 instructions: 350000000 cycles: 179934926 heartbeat IPC: 1.355 cumulative IPC: 1.792 (Simulation time: 02 hr 58 min 02 sec)
Heartbeat CPU 0 instructions: 360000004 cycles: 188928166 heartbeat IPC: 1.112 cumulative IPC: 1.757 (Simulation time: 03 hr 05 min 33 sec)
Heartbeat CPU 0 instructions: 370000000 cycles: 193306092 heartbeat IPC: 2.284 cumulative IPC: 1.77 (Simulation time: 03 hr 10 min 09 sec)
Heartbeat CPU 0 instructions: 380000001 cycles: 198205466 heartbeat IPC: 2.041 cumulative IPC: 1.777 (Simulation time: 03 hr 15 min 10 sec)
Heartbeat CPU 0 instructions: 390000002 cycles: 203011606 heartbeat IPC: 2.081 cumulative IPC: 1.785 (Simulation time: 03 hr 20 min 04 sec)
Heartbeat CPU 0 instructions: 400000004 cycles: 207934581 heartbeat IPC: 2.031 cumulative IPC: 1.791 (Simulation time: 03 hr 25 min 13 sec)
Heartbeat CPU 0 instructions: 410000000 cycles: 212641168 heartbeat IPC: 2.125 cumulative IPC: 1.799 (Simulation time: 03 hr 30 min 01 sec)
Heartbeat CPU 0 instructions: 420000000 cycles: 217753490 heartbeat IPC: 1.956 cumulative IPC: 1.803 (Simulation time: 03 hr 35 min 05 sec)
Heartbeat CPU 0 instructions: 430000001 cycles: 222225944 heartbeat IPC: 2.236 cumulative IPC: 1.812 (Simulation time: 03 hr 39 min 50 sec)
Heartbeat CPU 0 instructions: 440000000 cycles: 227576779 heartbeat IPC: 1.869 cumulative IPC: 1.814 (Simulation time: 03 hr 44 min 59 sec)
Heartbeat CPU 0 instructions: 450000002 cycles: 232238667 heartbeat IPC: 2.145 cumulative IPC: 1.821 (Simulation time: 03 hr 49 min 46 sec)
Heartbeat CPU 0 instructions: 460000000 cycles: 237029448 heartbeat IPC: 2.087 cumulative IPC: 1.826 (Simulation time: 03 hr 54 min 36 sec)
Heartbeat CPU 0 instructions: 470000000 cycles: 242014426 heartbeat IPC: 2.006 cumulative IPC: 1.83 (Simulation time: 03 hr 59 min 36 sec)
Heartbeat CPU 0 instructions: 480000003 cycles: 246815215 heartbeat IPC: 2.083 cumulative IPC: 1.835 (Simulation time: 04 hr 04 min 26 sec)
Heartbeat CPU 0 instructions: 490000000 cycles: 251425407 heartbeat IPC: 2.169 cumulative IPC: 1.842 (Simulation time: 04 hr 09 min 10 sec)
Heartbeat CPU 0 instructions: 500000000 cycles: 256444451 heartbeat IPC: 1.992 cumulative IPC: 1.845 (Simulation time: 04 hr 14 min 06 sec)
Heartbeat CPU 0 instructions: 510000003 cycles: 262117274 heartbeat IPC: 1.763 cumulative IPC: 1.843 (Simulation time: 04 hr 19 min 26 sec)
Heartbeat CPU 0 instructions: 520000001 cycles: 266806513 heartbeat IPC: 2.133 cumulative IPC: 1.848 (Simulation time: 04 hr 24 min 16 sec)
Heartbeat CPU 0 instructions: 530000002 cycles: 271981629 heartbeat IPC: 1.932 cumulative IPC: 1.85 (Simulation time: 04 hr 29 min 22 sec)
Heartbeat CPU 0 instructions: 540000000 cycles: 277102050 heartbeat IPC: 1.953 cumulative IPC: 1.852 (Simulation time: 04 hr 34 min 24 sec)
Heartbeat CPU 0 instructions: 550000001 cycles: 281911863 heartbeat IPC: 2.079 cumulative IPC: 1.856 (Simulation time: 04 hr 39 min 16 sec)
Heartbeat CPU 0 instructions: 560000000 cycles: 287190482 heartbeat IPC: 1.894 cumulative IPC: 1.857 (Simulation time: 04 hr 44 min 26 sec)
Heartbeat CPU 0 instructions: 570000004 cycles: 294165908 heartbeat IPC: 1.434 cumulative IPC: 1.846 (Simulation time: 04 hr 50 min 51 sec)
Heartbeat CPU 0 instructions: 580000003 cycles: 301855876 heartbeat IPC: 1.3 cumulative IPC: 1.832 (Simulation time: 04 hr 57 min 56 sec)
Heartbeat CPU 0 instructions: 590000002 cycles: 311866991 heartbeat IPC: 0.9989 cumulative IPC: 1.804 (Simulation time: 05 hr 06 min 27 sec)
Heartbeat CPU 0 instructions: 600000000 cycles: 316430227 heartbeat IPC: 2.191 cumulative IPC: 1.81 (Simulation time: 05 hr 11 min 31 sec)
Heartbeat CPU 0 instructions: 610000002 cycles: 320899077 heartbeat IPC: 2.238 cumulative IPC: 1.816 (Simulation time: 05 hr 16 min 27 sec)
Heartbeat CPU 0 instructions: 620000000 cycles: 325685330 heartbeat IPC: 2.089 cumulative IPC: 1.82 (Simulation time: 05 hr 21 min 30 sec)
Heartbeat CPU 0 instructions: 630000002 cycles: 330749559 heartbeat IPC: 1.975 cumulative IPC: 1.823 (Simulation time: 05 hr 26 min 52 sec)
Heartbeat CPU 0 instructions: 640000001 cycles: 335592629 heartbeat IPC: 2.065 cumulative IPC: 1.826 (Simulation time: 05 hr 31 min 53 sec)
Heartbeat CPU 0 instructions: 650000000 cycles: 340135181 heartbeat IPC: 2.201 cumulative IPC: 1.832 (Simulation time: 05 hr 36 min 37 sec)
Simulation finished CPU 0 instructions: 600000001 cycles: 327598067 cumulative IPC: 1.832 (Simulation time: 05 hr 36 min 37 sec)
Simulation complete CPU 0 instructions: 600000001 cycles: 327598067 cumulative IPC: 1.832 (Simulation time: 05 hr 36 min 37 sec)

ChampSim completed all CPUs

=== Simulation ===
CPU 0 runs traces/400.perlbench-41B.champsimtrace.xz
Region of Interest Statistics

CPU 0 cumulative IPC: 1.832 instructions: 600000001 cycles: 327598067
CPU 0 Branch Prediction Accuracy: 93.95% MPKI: 12.5 Average ROB Occupancy at Mispredict: 29.42
Branch type MPKI
BRANCH_DIRECT_JUMP: 0.0123
BRANCH_INDIRECT: 0.323
BRANCH_CONDITIONAL: 12
BRANCH_DIRECT_CALL: 0.0043
BRANCH_INDIRECT_CALL: 0.2
BRANCH_RETURN: 0.00828

LLC TOTAL        ACCESS:     938920 HIT:     679697 MISS:     259223
LLC LOAD         ACCESS:     400958 HIT:     292796 MISS:     108162
LLC RFO          ACCESS:      32827 HIT:      22727 MISS:      10100
LLC PREFETCH     ACCESS:     400958 HIT:     286590 MISS:     114368
LLC WRITE        ACCESS:      85280 HIT:      71216 MISS:      14064
LLC TRANSLATION  ACCESS:      18897 HIT:       6368 MISS:      12529
LLC PREFETCH REQUESTED:     400958 ISSUED:     400958 USEFUL:      37342 USELESS:      48655
LLC AVERAGE MISS LATENCY: 514.1 cycles
cpu0_DTLB TOTAL        ACCESS:  153681036 HIT:  153003942 MISS:     677094
cpu0_DTLB LOAD         ACCESS:  153681036 HIT:  153003942 MISS:     677094
cpu0_DTLB RFO          ACCESS:          0 HIT:          0 MISS:          0
cpu0_DTLB PREFETCH     ACCESS:          0 HIT:          0 MISS:          0
cpu0_DTLB WRITE        ACCESS:          0 HIT:          0 MISS:          0
cpu0_DTLB TRANSLATION  ACCESS:          0 HIT:          0 MISS:          0
cpu0_DTLB PREFETCH REQUESTED:          0 ISSUED:          0 USEFUL:          0 USELESS:          0
cpu0_DTLB AVERAGE MISS LATENCY: 16.98 cycles
cpu0_ITLB TOTAL        ACCESS:    4838667 HIT:    4780774 MISS:      57893
cpu0_ITLB LOAD         ACCESS:    4838667 HIT:    4780774 MISS:      57893
cpu0_ITLB RFO          ACCESS:          0 HIT:          0 MISS:          0
cpu0_ITLB PREFETCH     ACCESS:          0 HIT:          0 MISS:          0
cpu0_ITLB WRITE        ACCESS:          0 HIT:          0 MISS:          0
cpu0_ITLB TRANSLATION  ACCESS:          0 HIT:          0 MISS:          0
cpu0_ITLB PREFETCH REQUESTED:          0 ISSUED:          0 USEFUL:          0 USELESS:          0
cpu0_ITLB AVERAGE MISS LATENCY: 6.004 cycles
cpu0_L1D TOTAL        ACCESS:  200307201 HIT:  198612667 MISS:    1694534
cpu0_L1D LOAD         ACCESS:  117064188 HIT:  115742998 MISS:    1321190
cpu0_L1D RFO          ACCESS:          0 HIT:          0 MISS:          0
cpu0_L1D PREFETCH     ACCESS:          0 HIT:          0 MISS:          0
cpu0_L1D WRITE        ACCESS:   83218551 HIT:   82868635 MISS:     349916
cpu0_L1D TRANSLATION  ACCESS:      24462 HIT:       1034 MISS:      23428
cpu0_L1D PREFETCH REQUESTED:          0 ISSUED:          0 USEFUL:          0 USELESS:          0
cpu0_L1D AVERAGE MISS LATENCY: 51.21 cycles
cpu0_L1I TOTAL        ACCESS:    5580798 HIT:    4819443 MISS:     761355
cpu0_L1I LOAD         ACCESS:    5580798 HIT:    4819443 MISS:     761355
cpu0_L1I RFO          ACCESS:          0 HIT:          0 MISS:          0
cpu0_L1I PREFETCH     ACCESS:          0 HIT:          0 MISS:          0
cpu0_L1I WRITE        ACCESS:          0 HIT:          0 MISS:          0
cpu0_L1I TRANSLATION  ACCESS:          0 HIT:          0 MISS:          0
cpu0_L1I PREFETCH REQUESTED:          0 ISSUED:          0 USEFUL:          0 USELESS:          0
cpu0_L1I AVERAGE MISS LATENCY: 13.67 cycles
cpu0_L2C TOTAL        ACCESS:    1667903 HIT:    1213410 MISS:     454493
cpu0_L2C LOAD         ACCESS:    1317143 HIT:     916185 MISS:     400958
cpu0_L2C RFO          ACCESS:      88582 HIT:      55755 MISS:      32827
cpu0_L2C PREFETCH     ACCESS:          0 HIT:          0 MISS:          0
cpu0_L2C WRITE        ACCESS:     238828 HIT:     237017 MISS:       1811
cpu0_L2C TRANSLATION  ACCESS:      23350 HIT:       4453 MISS:      18897
cpu0_L2C PREFETCH REQUESTED:          0 ISSUED:          0 USEFUL:          0 USELESS:          0
cpu0_L2C AVERAGE MISS LATENCY: 189.4 cycles
cpu0_STLB TOTAL        ACCESS:     505068 HIT:     482279 MISS:      22789
cpu0_STLB LOAD         ACCESS:     505068 HIT:     482279 MISS:      22789
cpu0_STLB RFO          ACCESS:          0 HIT:          0 MISS:          0
cpu0_STLB PREFETCH     ACCESS:          0 HIT:          0 MISS:          0
cpu0_STLB WRITE        ACCESS:          0 HIT:          0 MISS:          0
cpu0_STLB TRANSLATION  ACCESS:          0 HIT:          0 MISS:          0
cpu0_STLB PREFETCH REQUESTED:          0 ISSUED:          0 USEFUL:          0 USELESS:          0
cpu0_STLB AVERAGE MISS LATENCY: 379.9 cycles

DRAM Statistics

Channel 0 RQ ROW_BUFFER_HIT:      32358
  ROW_BUFFER_MISS:     177186
 AVG DBUS CONGESTED CYCLE: 3.838
WQ ROW_BUFFER_HIT: Channel 0 
  ROW_BUFFER_MISS:       6521
  FULL:      18041
