WARNING: physical memory size is smaller than virtual memory size.

*** ChampSim Multicore Out-of-Order Simulator ***
Warmup Instructions: 50000000
Simulation Instructions: 600000000
Number of CPUs: 1
Page size: 4096

CPU 0 Tage branch predictor
Off-chip DRAM Size: 4 GiB Channels: 1 Width: 64-bit Data Race: 3200 MT/s
Heartbeat CPU 0 instructions: 10000001 cycles: 2500318 heartbeat IPC: 3.999 cumulative IPC: 3.999 (Simulation time: 00 hr 01 min 46 sec)
Heartbeat CPU 0 instructions: 20000002 cycles: 5037108 heartbeat IPC: 3.942 cumulative IPC: 3.971 (Simulation time: 00 hr 04 min 23 sec)
Heartbeat CPU 0 instructions: 30000002 cycles: 7537108 heartbeat IPC: 4 cumulative IPC: 3.98 (Simulation time: 00 hr 07 min 56 sec)
Heartbeat CPU 0 instructions: 40000002 cycles: 10037108 heartbeat IPC: 4 cumulative IPC: 3.985 (Simulation time: 00 hr 12 min 03 sec)
Heartbeat CPU 0 instructions: 50000002 cycles: 12537108 heartbeat IPC: 4 cumulative IPC: 3.988 (Simulation time: 00 hr 16 min 25 sec)
Warmup finished CPU 0 instructions: 50000002 cycles: 12537109 cumulative IPC: 3.988 (Simulation time: 00 hr 16 min 25 sec)
Warmup complete CPU 0 instructions: 50000002 cycles: 12537109 cumulative IPC: 3.988 (Simulation time: 00 hr 16 min 25 sec)
Heartbeat CPU 0 instructions: 60000001 cycles: 15508499 heartbeat IPC: 3.365 cumulative IPC: 3.365 (Simulation time: 00 hr 21 min 31 sec)
Heartbeat CPU 0 instructions: 70000004 cycles: 18573955 heartbeat IPC: 3.262 cumulative IPC: 3.313 (Simulation time: 00 hr 26 min 44 sec)
Heartbeat CPU 0 instructions: 80000001 cycles: 21618934 heartbeat IPC: 3.284 cumulative IPC: 3.303 (Simulation time: 00 hr 31 min 52 sec)
Heartbeat CPU 0 instructions: 90000001 cycles: 24561113 heartbeat IPC: 3.399 cumulative IPC: 3.327 (Simulation time: 00 hr 36 min 54 sec)
Heartbeat CPU 0 instructions: 100000000 cycles: 27469906 heartbeat IPC: 3.438 cumulative IPC: 3.348 (Simulation time: 00 hr 41 min 55 sec)
Heartbeat CPU 0 instructions: 110000000 cycles: 30414409 heartbeat IPC: 3.396 cumulative IPC: 3.356 (Simulation time: 00 hr 46 min 56 sec)
Heartbeat CPU 0 instructions: 120000001 cycles: 33384384 heartbeat IPC: 3.367 cumulative IPC: 3.358 (Simulation time: 00 hr 51 min 56 sec)
Heartbeat CPU 0 instructions: 130000001 cycles: 36234806 heartbeat IPC: 3.508 cumulative IPC: 3.376 (Simulation time: 00 hr 57 min 01 sec)
Heartbeat CPU 0 instructions: 140000001 cycles: 39269984 heartbeat IPC: 3.295 cumulative IPC: 3.367 (Simulation time: 01 hr 02 min 05 sec)
Heartbeat CPU 0 instructions: 150000001 cycles: 42274624 heartbeat IPC: 3.328 cumulative IPC: 3.363 (Simulation time: 01 hr 07 min 11 sec)
Heartbeat CPU 0 instructions: 160000004 cycles: 45286048 heartbeat IPC: 3.321 cumulative IPC: 3.359 (Simulation time: 01 hr 12 min 17 sec)
Heartbeat CPU 0 instructions: 170000000 cycles: 51041524 heartbeat IPC: 1.737 cumulative IPC: 3.117 (Simulation time: 01 hr 19 min 25 sec)
Heartbeat CPU 0 instructions: 180000004 cycles: 57014212 heartbeat IPC: 1.674 cumulative IPC: 2.923 (Simulation time: 01 hr 26 min 44 sec)
Heartbeat CPU 0 instructions: 190000001 cycles: 63859608 heartbeat IPC: 1.461 cumulative IPC: 2.728 (Simulation time: 01 hr 34 min 36 sec)
Heartbeat CPU 0 instructions: 200000004 cycles: 66760672 heartbeat IPC: 3.447 cumulative IPC: 2.766 (Simulation time: 01 hr 39 min 34 sec)
Heartbeat CPU 0 instructions: 210000001 cycles: 69677609 heartbeat IPC: 3.428 cumulative IPC: 2.8 (Simulation time: 01 hr 44 min 35 sec)
Heartbeat CPU 0 instructions: 220000000 cycles: 72540650 heartbeat IPC: 3.493 cumulative IPC: 2.833 (Simulation time: 01 hr 49 min 36 sec)
Heartbeat CPU 0 instructions: 230000002 cycles: 75478750 heartbeat IPC: 3.404 cumulative IPC: 2.86 (Simulation time: 01 hr 54 min 40 sec)
Heartbeat CPU 0 instructions: 240000003 cycles: 78451605 heartbeat IPC: 3.364 cumulative IPC: 2.883 (Simulation time: 01 hr 59 min 45 sec)
Heartbeat CPU 0 instructions: 250000000 cycles: 81403230 heartbeat IPC: 3.388 cumulative IPC: 2.904 (Simulation time: 02 hr 04 min 47 sec)
Heartbeat CPU 0 instructions: 260000002 cycles: 84291905 heartbeat IPC: 3.462 cumulative IPC: 2.927 (Simulation time: 02 hr 09 min 43 sec)
Heartbeat CPU 0 instructions: 270000002 cycles: 87134028 heartbeat IPC: 3.518 cumulative IPC: 2.949 (Simulation time: 02 hr 14 min 39 sec)
Heartbeat CPU 0 instructions: 280000002 cycles: 89958309 heartbeat IPC: 3.541 cumulative IPC: 2.971 (Simulation time: 02 hr 19 min 39 sec)
Heartbeat CPU 0 instructions: 290000002 cycles: 92857057 heartbeat IPC: 3.45 cumulative IPC: 2.988 (Simulation time: 02 hr 24 min 36 sec)
Heartbeat CPU 0 instructions: 300000003 cycles: 95677657 heartbeat IPC: 3.545 cumulative IPC: 3.007 (Simulation time: 02 hr 29 min 48 sec)
Heartbeat CPU 0 instructions: 310000001 cycles: 98619057 heartbeat IPC: 3.4 cumulative IPC: 3.02 (Simulation time: 02 hr 34 min 48 sec)
Heartbeat CPU 0 instructions: 320000003 cycles: 101558593 heartbeat IPC: 3.402 cumulative IPC: 3.033 (Simulation time: 02 hr 39 min 52 sec)
Heartbeat CPU 0 instructions: 330000003 cycles: 104464098 heartbeat IPC: 3.442 cumulative IPC: 3.046 (Simulation time: 02 hr 44 min 56 sec)
Heartbeat CPU 0 instructions: 340000000 cycles: 110606052 heartbeat IPC: 1.628 cumulative IPC: 2.957 (Simulation time: 02 hr 52 min 14 sec)
Heartbeat CPU 0 instructions: 350000000 cycles: 117202331 heartbeat IPC: 1.516 cumulative IPC: 2.866 (Simulation time: 03 hr 00 min 01 sec)
Heartbeat CPU 0 instructions: 360000004 cycles: 123729375 heartbeat IPC: 1.532 cumulative IPC: 2.788 (Simulation time: 03 hr 07 min 41 sec)
Heartbeat CPU 0 instructions: 370000000 cycles: 126636216 heartbeat IPC: 3.44 cumulative IPC: 2.805 (Simulation time: 03 hr 12 min 37 sec)
Heartbeat CPU 0 instructions: 380000003 cycles: 129496883 heartbeat IPC: 3.496 cumulative IPC: 2.821 (Simulation time: 03 hr 17 min 37 sec)
Heartbeat CPU 0 instructions: 390000002 cycles: 132432653 heartbeat IPC: 3.406 cumulative IPC: 2.836 (Simulation time: 03 hr 22 min 39 sec)
Heartbeat CPU 0 instructions: 400000004 cycles: 135311652 heartbeat IPC: 3.473 cumulative IPC: 2.851 (Simulation time: 03 hr 27 min 38 sec)
Heartbeat CPU 0 instructions: 410000002 cycles: 138186907 heartbeat IPC: 3.478 cumulative IPC: 2.865 (Simulation time: 03 hr 32 min 35 sec)
Heartbeat CPU 0 instructions: 420000003 cycles: 141184214 heartbeat IPC: 3.336 cumulative IPC: 2.876 (Simulation time: 03 hr 37 min 39 sec)
Heartbeat CPU 0 instructions: 430000001 cycles: 144147431 heartbeat IPC: 3.375 cumulative IPC: 2.887 (Simulation time: 03 hr 42 min 42 sec)
Heartbeat CPU 0 instructions: 440000004 cycles: 147206033 heartbeat IPC: 3.269 cumulative IPC: 2.896 (Simulation time: 03 hr 47 min 50 sec)
Heartbeat CPU 0 instructions: 450000002 cycles: 150060244 heartbeat IPC: 3.504 cumulative IPC: 2.909 (Simulation time: 03 hr 52 min 50 sec)
Heartbeat CPU 0 instructions: 460000000 cycles: 152933152 heartbeat IPC: 3.481 cumulative IPC: 2.92 (Simulation time: 03 hr 57 min 50 sec)
Heartbeat CPU 0 instructions: 470000001 cycles: 155728002 heartbeat IPC: 3.578 cumulative IPC: 2.933 (Simulation time: 04 hr 02 min 47 sec)
Heartbeat CPU 0 instructions: 480000003 cycles: 158714391 heartbeat IPC: 3.349 cumulative IPC: 2.942 (Simulation time: 04 hr 07 min 51 sec)
Heartbeat CPU 0 instructions: 490000004 cycles: 161503116 heartbeat IPC: 3.586 cumulative IPC: 2.954 (Simulation time: 04 hr 12 min 48 sec)
Heartbeat CPU 0 instructions: 500000004 cycles: 164449047 heartbeat IPC: 3.395 cumulative IPC: 2.962 (Simulation time: 04 hr 17 min 47 sec)
Heartbeat CPU 0 instructions: 510000003 cycles: 167403110 heartbeat IPC: 3.385 cumulative IPC: 2.97 (Simulation time: 04 hr 22 min 53 sec)
Heartbeat CPU 0 instructions: 520000001 cycles: 170221407 heartbeat IPC: 3.548 cumulative IPC: 2.981 (Simulation time: 04 hr 27 min 55 sec)
Heartbeat CPU 0 instructions: 530000001 cycles: 173172714 heartbeat IPC: 3.388 cumulative IPC: 2.988 (Simulation time: 04 hr 32 min 56 sec)
Heartbeat CPU 0 instructions: 540000000 cycles: 176072772 heartbeat IPC: 3.448 cumulative IPC: 2.996 (Simulation time: 04 hr 37 min 56 sec)
Heartbeat CPU 0 instructions: 550000001 cycles: 179007277 heartbeat IPC: 3.408 cumulative IPC: 3.004 (Simulation time: 04 hr 42 min 55 sec)
Heartbeat CPU 0 instructions: 560000000 cycles: 182013029 heartbeat IPC: 3.327 cumulative IPC: 3.009 (Simulation time: 04 hr 48 min 00 sec)
Heartbeat CPU 0 instructions: 570000004 cycles: 186498849 heartbeat IPC: 2.229 cumulative IPC: 2.989 (Simulation time: 04 hr 54 min 11 sec)
Heartbeat CPU 0 instructions: 580000003 cycles: 193417499 heartbeat IPC: 1.445 cumulative IPC: 2.93 (Simulation time: 05 hr 02 min 12 sec)
Heartbeat CPU 0 instructions: 590000002 cycles: 201476273 heartbeat IPC: 1.241 cumulative IPC: 2.858 (Simulation time: 05 hr 10 min 58 sec)
Heartbeat CPU 0 instructions: 600000004 cycles: 204464718 heartbeat IPC: 3.346 cumulative IPC: 2.866 (Simulation time: 05 hr 15 min 59 sec)
Heartbeat CPU 0 instructions: 610000002 cycles: 207386332 heartbeat IPC: 3.423 cumulative IPC: 2.874 (Simulation time: 05 hr 21 min 01 sec)
Heartbeat CPU 0 instructions: 620000001 cycles: 210132759 heartbeat IPC: 3.641 cumulative IPC: 2.885 (Simulation time: 05 hr 25 min 58 sec)
Heartbeat CPU 0 instructions: 630000002 cycles: 213057603 heartbeat IPC: 3.419 cumulative IPC: 2.892 (Simulation time: 05 hr 30 min 57 sec)
Heartbeat CPU 0 instructions: 640000004 cycles: 215992226 heartbeat IPC: 3.408 cumulative IPC: 2.9 (Simulation time: 05 hr 36 min 11 sec)
Heartbeat CPU 0 instructions: 650000000 cycles: 218721629 heartbeat IPC: 3.664 cumulative IPC: 2.91 (Simulation time: 05 hr 41 min 16 sec)
Simulation finished CPU 0 instructions: 600000001 cycles: 206184522 cumulative IPC: 2.91 (Simulation time: 05 hr 41 min 16 sec)
Simulation complete CPU 0 instructions: 600000001 cycles: 206184522 cumulative IPC: 2.91 (Simulation time: 05 hr 41 min 16 sec)

ChampSim completed all CPUs

=== Simulation ===
CPU 0 runs traces/400.perlbench-41B.champsimtrace.xz
Region of Interest Statistics

CPU 0 cumulative IPC: 2.91 instructions: 600000001 cycles: 206184522
CPU 0 Branch Prediction Accuracy: 99.19% MPKI: 1.684 Average ROB Occupancy at Mispredict: 101.6
Branch type MPKI
BRANCH_DIRECT_JUMP: 0.0123
BRANCH_INDIRECT: 0.323
BRANCH_CONDITIONAL: 1.14
BRANCH_DIRECT_CALL: 0.0043
BRANCH_INDIRECT_CALL: 0.2
BRANCH_RETURN: 0.00828

LLC TOTAL        ACCESS:     593149 HIT:     432823 MISS:     160326
LLC LOAD         ACCESS:     403535 HIT:     279693 MISS:     123842
LLC RFO          ACCESS:      32469 HIT:      22846 MISS:       9623
LLC PREFETCH     ACCESS:      52837 HIT:      37454 MISS:      15383
LLC WRITE        ACCESS:      85249 HIT:      82661 MISS:       2588
LLC TRANSLATION  ACCESS:      19059 HIT:      10169 MISS:       8890
LLC PREFETCH REQUESTED:      52837 ISSUED:      52837 USEFUL:       6670 USELESS:       6978
LLC AVERAGE MISS LATENCY: 564.9 cycles
cpu0_DTLB TOTAL        ACCESS:  129774456 HIT:  129069890 MISS:     704566
cpu0_DTLB LOAD         ACCESS:  129774456 HIT:  129069890 MISS:     704566
cpu0_DTLB RFO          ACCESS:          0 HIT:          0 MISS:          0
cpu0_DTLB PREFETCH     ACCESS:          0 HIT:          0 MISS:          0
cpu0_DTLB WRITE        ACCESS:          0 HIT:          0 MISS:          0
cpu0_DTLB TRANSLATION  ACCESS:          0 HIT:          0 MISS:          0
cpu0_DTLB PREFETCH REQUESTED:          0 ISSUED:          0 USEFUL:          0 USELESS:          0
cpu0_DTLB AVERAGE MISS LATENCY: 12.82 cycles
cpu0_ITLB TOTAL        ACCESS:    4873657 HIT:    4811560 MISS:      62097
cpu0_ITLB LOAD         ACCESS:    4873657 HIT:    4811560 MISS:      62097
cpu0_ITLB RFO          ACCESS:          0 HIT:          0 MISS:          0
cpu0_ITLB PREFETCH     ACCESS:          0 HIT:          0 MISS:          0
cpu0_ITLB WRITE        ACCESS:          0 HIT:          0 MISS:          0
cpu0_ITLB TRANSLATION  ACCESS:          0 HIT:          0 MISS:          0
cpu0_ITLB PREFETCH REQUESTED:          0 ISSUED:          0 USEFUL:          0 USELESS:          0
cpu0_ITLB AVERAGE MISS LATENCY: 5.359 cycles
cpu0_L1D TOTAL        ACCESS:  174373976 HIT:  172612715 MISS:    1761261
cpu0_L1D LOAD         ACCESS:   91349075 HIT:   89976388 MISS:    1372687
cpu0_L1D RFO          ACCESS:          0 HIT:          0 MISS:          0
cpu0_L1D PREFETCH     ACCESS:          0 HIT:          0 MISS:          0
cpu0_L1D WRITE        ACCESS:   83000440 HIT:   82635263 MISS:     365177
cpu0_L1D TRANSLATION  ACCESS:      24461 HIT:       1064 MISS:      23397
cpu0_L1D PREFETCH REQUESTED:          0 ISSUED:          0 USEFUL:          0 USELESS:          0
cpu0_L1D AVERAGE MISS LATENCY: 51.74 cycles
cpu0_L1I TOTAL        ACCESS:    5652992 HIT:    4848271 MISS:     804721
cpu0_L1I LOAD         ACCESS:    5652992 HIT:    4848271 MISS:     804721
cpu0_L1I RFO          ACCESS:          0 HIT:          0 MISS:          0
cpu0_L1I PREFETCH     ACCESS:          0 HIT:          0 MISS:          0
cpu0_L1I WRITE        ACCESS:          0 HIT:          0 MISS:          0
cpu0_L1I TRANSLATION  ACCESS:          0 HIT:          0 MISS:          0
cpu0_L1I PREFETCH REQUESTED:          0 ISSUED:          0 USEFUL:          0 USELESS:          0
cpu0_L1I AVERAGE MISS LATENCY: 8.931 cycles
cpu0_L2C TOTAL        ACCESS:    1668149 HIT:    1211254 MISS:     456895
cpu0_L2C LOAD         ACCESS:    1315358 HIT:     911823 MISS:     403535
cpu0_L2C RFO          ACCESS:      89570 HIT:      57100 MISS:      32470
cpu0_L2C PREFETCH     ACCESS:          0 HIT:          0 MISS:          0
cpu0_L2C WRITE        ACCESS:     239900 HIT:     238069 MISS:       1831
cpu0_L2C TRANSLATION  ACCESS:      23321 HIT:       4262 MISS:      19059
cpu0_L2C PREFETCH REQUESTED:          0 ISSUED:          0 USEFUL:          0 USELESS:          0
cpu0_L2C AVERAGE MISS LATENCY: 199.4 cycles
cpu0_STLB TOTAL        ACCESS:     508919 HIT:     486132 MISS:      22787
cpu0_STLB LOAD         ACCESS:     508919 HIT:     486132 MISS:      22787
cpu0_STLB RFO          ACCESS:          0 HIT:          0 MISS:          0
cpu0_STLB PREFETCH     ACCESS:          0 HIT:          0 MISS:          0
cpu0_STLB WRITE        ACCESS:          0 HIT:          0 MISS:          0
cpu0_STLB TRANSLATION  ACCESS:          0 HIT:          0 MISS:          0
cpu0_STLB PREFETCH REQUESTED:          0 ISSUED:          0 USEFUL:          0 USELESS:          0
cpu0_STLB AVERAGE MISS LATENCY: 279.5 cycles

DRAM Statistics

Channel 0 RQ ROW_BUFFER_HIT:      30573
  ROW_BUFFER_MISS:     123795
 AVG DBUS CONGESTED CYCLE: 3.806
WQ ROW_BUFFER_HIT: Channel 0 
  ROW_BUFFER_MISS:       5378
  FULL:      14303
