WARNING: physical memory size is smaller than virtual memory size.

*** ChampSim Multicore Out-of-Order Simulator ***
Warmup Instructions: 50000000
Simulation Instructions: 600000000
Number of CPUs: 1
Page size: 4096

CPU 0 Tage branch predictor
Off-chip DRAM Size: 4 GiB Channels: 1 Width: 64-bit Data Race: 3200 MT/s
Heartbeat CPU 0 instructions: 10000000 cycles: 2500061 heartbeat IPC: 4 cumulative IPC: 4 (Simulation time: 00 hr 00 min 54 sec)
Heartbeat CPU 0 instructions: 20000000 cycles: 5000061 heartbeat IPC: 4 cumulative IPC: 4 (Simulation time: 00 hr 01 min 48 sec)
Heartbeat CPU 0 instructions: 30000000 cycles: 7500061 heartbeat IPC: 4 cumulative IPC: 4 (Simulation time: 00 hr 02 min 42 sec)
Heartbeat CPU 0 instructions: 40000000 cycles: 10000061 heartbeat IPC: 4 cumulative IPC: 4 (Simulation time: 00 hr 03 min 39 sec)
Heartbeat CPU 0 instructions: 50000000 cycles: 12500061 heartbeat IPC: 4 cumulative IPC: 4 (Simulation time: 00 hr 04 min 34 sec)
Warmup finished CPU 0 instructions: 50000000 cycles: 12500062 cumulative IPC: 4 (Simulation time: 00 hr 04 min 34 sec)
Warmup complete CPU 0 instructions: 50000000 cycles: 12500062 cumulative IPC: 4 (Simulation time: 00 hr 04 min 34 sec)
Heartbeat CPU 0 instructions: 60000004 cycles: 15504574 heartbeat IPC: 3.328 cumulative IPC: 3.328 (Simulation time: 00 hr 05 min 39 sec)
Heartbeat CPU 0 instructions: 70000003 cycles: 18375027 heartbeat IPC: 3.484 cumulative IPC: 3.404 (Simulation time: 00 hr 06 min 47 sec)
Heartbeat CPU 0 instructions: 80000002 cycles: 21385455 heartbeat IPC: 3.322 cumulative IPC: 3.376 (Simulation time: 00 hr 07 min 55 sec)
Heartbeat CPU 0 instructions: 90000000 cycles: 24106445 heartbeat IPC: 3.675 cumulative IPC: 3.446 (Simulation time: 00 hr 09 min 04 sec)
Heartbeat CPU 0 instructions: 100000003 cycles: 26861573 heartbeat IPC: 3.63 cumulative IPC: 3.482 (Simulation time: 00 hr 10 min 13 sec)
Heartbeat CPU 0 instructions: 110000001 cycles: 29760716 heartbeat IPC: 3.449 cumulative IPC: 3.476 (Simulation time: 00 hr 11 min 17 sec)
Heartbeat CPU 0 instructions: 120000001 cycles: 32476957 heartbeat IPC: 3.682 cumulative IPC: 3.504 (Simulation time: 00 hr 12 min 25 sec)
Heartbeat CPU 0 instructions: 130000003 cycles: 35373828 heartbeat IPC: 3.452 cumulative IPC: 3.497 (Simulation time: 00 hr 13 min 34 sec)
Heartbeat CPU 0 instructions: 140000002 cycles: 38209923 heartbeat IPC: 3.526 cumulative IPC: 3.501 (Simulation time: 00 hr 14 min 36 sec)
Heartbeat CPU 0 instructions: 150000001 cycles: 40979169 heartbeat IPC: 3.611 cumulative IPC: 3.511 (Simulation time: 00 hr 15 min 36 sec)
Heartbeat CPU 0 instructions: 160000000 cycles: 43896422 heartbeat IPC: 3.428 cumulative IPC: 3.504 (Simulation time: 00 hr 16 min 35 sec)
Heartbeat CPU 0 instructions: 170000001 cycles: 46819705 heartbeat IPC: 3.421 cumulative IPC: 3.497 (Simulation time: 00 hr 17 min 33 sec)
Heartbeat CPU 0 instructions: 180000000 cycles: 49612091 heartbeat IPC: 3.581 cumulative IPC: 3.503 (Simulation time: 00 hr 18 min 29 sec)
Heartbeat CPU 0 instructions: 190000002 cycles: 52318430 heartbeat IPC: 3.695 cumulative IPC: 3.516 (Simulation time: 00 hr 19 min 25 sec)
Heartbeat CPU 0 instructions: 200000002 cycles: 55141199 heartbeat IPC: 3.543 cumulative IPC: 3.518 (Simulation time: 00 hr 20 min 21 sec)
Heartbeat CPU 0 instructions: 210000000 cycles: 58032005 heartbeat IPC: 3.459 cumulative IPC: 3.514 (Simulation time: 00 hr 21 min 16 sec)
Heartbeat CPU 0 instructions: 220000001 cycles: 60781438 heartbeat IPC: 3.637 cumulative IPC: 3.521 (Simulation time: 00 hr 22 min 12 sec)
Heartbeat CPU 0 instructions: 230000002 cycles: 63668564 heartbeat IPC: 3.464 cumulative IPC: 3.518 (Simulation time: 00 hr 23 min 07 sec)
Heartbeat CPU 0 instructions: 240000004 cycles: 66619176 heartbeat IPC: 3.389 cumulative IPC: 3.511 (Simulation time: 00 hr 24 min 03 sec)
Heartbeat CPU 0 instructions: 250000003 cycles: 69509596 heartbeat IPC: 3.46 cumulative IPC: 3.508 (Simulation time: 00 hr 25 min 00 sec)
Heartbeat CPU 0 instructions: 260000001 cycles: 72292418 heartbeat IPC: 3.593 cumulative IPC: 3.512 (Simulation time: 00 hr 25 min 55 sec)
Heartbeat CPU 0 instructions: 270000002 cycles: 78010768 heartbeat IPC: 1.749 cumulative IPC: 3.358 (Simulation time: 00 hr 27 min 10 sec)
Heartbeat CPU 0 instructions: 280000000 cycles: 86497922 heartbeat IPC: 1.178 cumulative IPC: 3.108 (Simulation time: 00 hr 28 min 48 sec)
Heartbeat CPU 0 instructions: 290000000 cycles: 93587033 heartbeat IPC: 1.411 cumulative IPC: 2.96 (Simulation time: 00 hr 30 min 17 sec)
Heartbeat CPU 0 instructions: 300000003 cycles: 98633589 heartbeat IPC: 1.982 cumulative IPC: 2.902 (Simulation time: 00 hr 31 min 34 sec)
Heartbeat CPU 0 instructions: 310000001 cycles: 106017323 heartbeat IPC: 1.354 cumulative IPC: 2.78 (Simulation time: 00 hr 33 min 07 sec)
Heartbeat CPU 0 instructions: 320000004 cycles: 109680732 heartbeat IPC: 2.73 cumulative IPC: 2.778 (Simulation time: 00 hr 34 min 11 sec)
Heartbeat CPU 0 instructions: 330000000 cycles: 112825264 heartbeat IPC: 3.18 cumulative IPC: 2.791 (Simulation time: 00 hr 35 min 10 sec)
Heartbeat CPU 0 instructions: 340000001 cycles: 115932182 heartbeat IPC: 3.219 cumulative IPC: 2.804 (Simulation time: 00 hr 36 min 09 sec)
Heartbeat CPU 0 instructions: 350000000 cycles: 119225878 heartbeat IPC: 3.036 cumulative IPC: 2.811 (Simulation time: 00 hr 37 min 08 sec)
Heartbeat CPU 0 instructions: 360000004 cycles: 122320790 heartbeat IPC: 3.231 cumulative IPC: 2.823 (Simulation time: 00 hr 38 min 07 sec)
Heartbeat CPU 0 instructions: 370000001 cycles: 125370374 heartbeat IPC: 3.279 cumulative IPC: 2.835 (Simulation time: 00 hr 39 min 05 sec)
Heartbeat CPU 0 instructions: 380000004 cycles: 128436048 heartbeat IPC: 3.262 cumulative IPC: 2.846 (Simulation time: 00 hr 40 min 03 sec)
Heartbeat CPU 0 instructions: 390000002 cycles: 131606478 heartbeat IPC: 3.154 cumulative IPC: 2.855 (Simulation time: 00 hr 41 min 02 sec)
Heartbeat CPU 0 instructions: 400000000 cycles: 134838241 heartbeat IPC: 3.094 cumulative IPC: 2.861 (Simulation time: 00 hr 42 min 02 sec)
Heartbeat CPU 0 instructions: 410000000 cycles: 140223550 heartbeat IPC: 1.857 cumulative IPC: 2.819 (Simulation time: 00 hr 43 min 17 sec)
Heartbeat CPU 0 instructions: 420000003 cycles: 147860651 heartbeat IPC: 1.309 cumulative IPC: 2.733 (Simulation time: 00 hr 44 min 51 sec)
Heartbeat CPU 0 instructions: 430000000 cycles: 152430003 heartbeat IPC: 2.188 cumulative IPC: 2.716 (Simulation time: 00 hr 46 min 05 sec)
Heartbeat CPU 0 instructions: 440000004 cycles: 156830033 heartbeat IPC: 2.273 cumulative IPC: 2.702 (Simulation time: 00 hr 47 min 16 sec)
Heartbeat CPU 0 instructions: 450000001 cycles: 161295287 heartbeat IPC: 2.24 cumulative IPC: 2.688 (Simulation time: 00 hr 48 min 28 sec)
Heartbeat CPU 0 instructions: 460000002 cycles: 168068562 heartbeat IPC: 1.476 cumulative IPC: 2.635 (Simulation time: 00 hr 49 min 57 sec)
Heartbeat CPU 0 instructions: 470000003 cycles: 174604922 heartbeat IPC: 1.53 cumulative IPC: 2.591 (Simulation time: 00 hr 51 min 23 sec)
Heartbeat CPU 0 instructions: 480000000 cycles: 177927639 heartbeat IPC: 3.01 cumulative IPC: 2.599 (Simulation time: 00 hr 52 min 22 sec)
Heartbeat CPU 0 instructions: 490000001 cycles: 181482010 heartbeat IPC: 2.813 cumulative IPC: 2.604 (Simulation time: 00 hr 53 min 24 sec)
Heartbeat CPU 0 instructions: 500000002 cycles: 184872783 heartbeat IPC: 2.949 cumulative IPC: 2.611 (Simulation time: 00 hr 54 min 26 sec)
Heartbeat CPU 0 instructions: 510000000 cycles: 188266950 heartbeat IPC: 2.946 cumulative IPC: 2.617 (Simulation time: 00 hr 55 min 27 sec)
Heartbeat CPU 0 instructions: 520000000 cycles: 191667865 heartbeat IPC: 2.94 cumulative IPC: 2.623 (Simulation time: 00 hr 56 min 28 sec)
Heartbeat CPU 0 instructions: 530000001 cycles: 199022936 heartbeat IPC: 1.36 cumulative IPC: 2.573 (Simulation time: 00 hr 57 min 58 sec)
Heartbeat CPU 0 instructions: 540000000 cycles: 205830166 heartbeat IPC: 1.469 cumulative IPC: 2.535 (Simulation time: 00 hr 59 min 27 sec)
Heartbeat CPU 0 instructions: 550000004 cycles: 214428923 heartbeat IPC: 1.163 cumulative IPC: 2.476 (Simulation time: 01 hr 01 min 08 sec)
Heartbeat CPU 0 instructions: 560000004 cycles: 217823046 heartbeat IPC: 2.946 cumulative IPC: 2.484 (Simulation time: 01 hr 02 min 07 sec)
Heartbeat CPU 0 instructions: 570000002 cycles: 220637971 heartbeat IPC: 3.552 cumulative IPC: 2.498 (Simulation time: 01 hr 03 min 04 sec)
Heartbeat CPU 0 instructions: 580000000 cycles: 223551191 heartbeat IPC: 3.433 cumulative IPC: 2.511 (Simulation time: 01 hr 04 min 00 sec)
Heartbeat CPU 0 instructions: 590000001 cycles: 226469071 heartbeat IPC: 3.427 cumulative IPC: 2.524 (Simulation time: 01 hr 04 min 56 sec)
Heartbeat CPU 0 instructions: 600000003 cycles: 229157471 heartbeat IPC: 3.72 cumulative IPC: 2.539 (Simulation time: 01 hr 05 min 52 sec)
Heartbeat CPU 0 instructions: 610000001 cycles: 232017057 heartbeat IPC: 3.497 cumulative IPC: 2.551 (Simulation time: 01 hr 06 min 47 sec)
Heartbeat CPU 0 instructions: 620000004 cycles: 234965111 heartbeat IPC: 3.392 cumulative IPC: 2.562 (Simulation time: 01 hr 07 min 42 sec)
Heartbeat CPU 0 instructions: 630000002 cycles: 237774489 heartbeat IPC: 3.56 cumulative IPC: 2.575 (Simulation time: 01 hr 08 min 36 sec)
Heartbeat CPU 0 instructions: 640000004 cycles: 240817005 heartbeat IPC: 3.287 cumulative IPC: 2.584 (Simulation time: 01 hr 09 min 31 sec)
Heartbeat CPU 0 instructions: 650000001 cycles: 243528044 heartbeat IPC: 3.689 cumulative IPC: 2.597 (Simulation time: 01 hr 10 min 25 sec)
Simulation finished CPU 0 instructions: 600000001 cycles: 231027983 cumulative IPC: 2.597 (Simulation time: 01 hr 10 min 25 sec)
Simulation complete CPU 0 instructions: 600000001 cycles: 231027983 cumulative IPC: 2.597 (Simulation time: 01 hr 10 min 25 sec)

ChampSim completed all CPUs

=== Simulation ===
CPU 0 runs traces/400.perlbench-50B.champsimtrace.xz
Region of Interest Statistics

CPU 0 cumulative IPC: 2.597 instructions: 600000001 cycles: 231027983
CPU 0 Branch Prediction Accuracy: 99.01% MPKI: 2.04 Average ROB Occupancy at Mispredict: 94.33
Branch type MPKI
BRANCH_DIRECT_JUMP: 0.0176
BRANCH_INDIRECT: 0.38
BRANCH_CONDITIONAL: 1.19
BRANCH_DIRECT_CALL: 0.0067
BRANCH_INDIRECT_CALL: 0.431
BRANCH_RETURN: 0.0161

LLC TOTAL        ACCESS:     835234 HIT:     580248 MISS:     254986
LLC LOAD         ACCESS:     575643 HIT:     365537 MISS:     210106
LLC RFO          ACCESS:      46980 HIT:      31501 MISS:      15479
LLC PREFETCH     ACCESS:      64062 HIT:      45014 MISS:      19048
LLC WRITE        ACCESS:     126407 HIT:     126354 MISS:         53
LLC TRANSLATION  ACCESS:      22142 HIT:      11842 MISS:      10300
LLC PREFETCH REQUESTED:      64062 ISSUED:      64062 USEFUL:      10756 USELESS:       4655
LLC AVERAGE MISS LATENCY: 574.4 cycles
cpu0_DTLB TOTAL        ACCESS:  133245425 HIT:  131891262 MISS:    1354163
cpu0_DTLB LOAD         ACCESS:  133245425 HIT:  131891262 MISS:    1354163
cpu0_DTLB RFO          ACCESS:          0 HIT:          0 MISS:          0
cpu0_DTLB PREFETCH     ACCESS:          0 HIT:          0 MISS:          0
cpu0_DTLB WRITE        ACCESS:          0 HIT:          0 MISS:          0
cpu0_DTLB TRANSLATION  ACCESS:          0 HIT:          0 MISS:          0
cpu0_DTLB PREFETCH REQUESTED:          0 ISSUED:          0 USEFUL:          0 USELESS:          0
cpu0_DTLB AVERAGE MISS LATENCY: 10.6 cycles
cpu0_ITLB TOTAL        ACCESS:    8998550 HIT:    8789110 MISS:     209440
cpu0_ITLB LOAD         ACCESS:    8998550 HIT:    8789110 MISS:     209440
cpu0_ITLB RFO          ACCESS:          0 HIT:          0 MISS:          0
cpu0_ITLB PREFETCH     ACCESS:          0 HIT:          0 MISS:          0
cpu0_ITLB WRITE        ACCESS:          0 HIT:          0 MISS:          0
cpu0_ITLB TRANSLATION  ACCESS:          0 HIT:          0 MISS:          0
cpu0_ITLB PREFETCH REQUESTED:          0 ISSUED:          0 USEFUL:          0 USELESS:          0
cpu0_ITLB AVERAGE MISS LATENCY: 2.54 cycles
cpu0_L1D TOTAL        ACCESS:  178279904 HIT:  174501357 MISS:    3778547
cpu0_L1D LOAD         ACCESS:   92759502 HIT:   89661131 MISS:    3098371
cpu0_L1D RFO          ACCESS:          0 HIT:          0 MISS:          0
cpu0_L1D PREFETCH     ACCESS:          0 HIT:          0 MISS:          0
cpu0_L1D WRITE        ACCESS:   85491874 HIT:   84838802 MISS:     653072
cpu0_L1D TRANSLATION  ACCESS:      28528 HIT:       1424 MISS:      27104
cpu0_L1D PREFETCH REQUESTED:          0 ISSUED:          0 USEFUL:          0 USELESS:          0
cpu0_L1D AVERAGE MISS LATENCY: 40.28 cycles
cpu0_L1I TOTAL        ACCESS:   10518015 HIT:    8618787 MISS:    1899228
cpu0_L1I LOAD         ACCESS:   10518015 HIT:    8618787 MISS:    1899228
cpu0_L1I RFO          ACCESS:          0 HIT:          0 MISS:          0
cpu0_L1I PREFETCH     ACCESS:          0 HIT:          0 MISS:          0
cpu0_L1I WRITE        ACCESS:          0 HIT:          0 MISS:          0
cpu0_L1I TRANSLATION  ACCESS:          0 HIT:          0 MISS:          0
cpu0_L1I PREFETCH REQUESTED:          0 ISSUED:          0 USEFUL:          0 USELESS:          0
cpu0_L1I AVERAGE MISS LATENCY: 8.884 cycles
cpu0_L2C TOTAL        ACCESS:    3840448 HIT:    3192555 MISS:     647893
cpu0_L2C LOAD         ACCESS:    3103836 HIT:    2528193 MISS:     575643
cpu0_L2C RFO          ACCESS:     194859 HIT:     147879 MISS:      46980
cpu0_L2C PREFETCH     ACCESS:          0 HIT:          0 MISS:          0
cpu0_L2C WRITE        ACCESS:     514719 HIT:     511591 MISS:       3128
cpu0_L2C TRANSLATION  ACCESS:      27034 HIT:       4892 MISS:      22142
cpu0_L2C PREFETCH REQUESTED:          0 ISSUED:          0 USEFUL:          0 USELESS:          0
cpu0_L2C AVERAGE MISS LATENCY: 229.2 cycles
cpu0_STLB TOTAL        ACCESS:    1009734 HIT:     983045 MISS:      26689
cpu0_STLB LOAD         ACCESS:    1009734 HIT:     983045 MISS:      26689
cpu0_STLB RFO          ACCESS:          0 HIT:          0 MISS:          0
cpu0_STLB PREFETCH     ACCESS:          0 HIT:          0 MISS:          0
cpu0_STLB WRITE        ACCESS:          0 HIT:          0 MISS:          0
cpu0_STLB TRANSLATION  ACCESS:          0 HIT:          0 MISS:          0
cpu0_STLB PREFETCH REQUESTED:          0 ISSUED:          0 USEFUL:          0 USELESS:          0
cpu0_STLB AVERAGE MISS LATENCY: 327.9 cycles

DRAM Statistics

Channel 0 RQ ROW_BUFFER_HIT:      63728
  ROW_BUFFER_MISS:     186984
 AVG DBUS CONGESTED CYCLE: 3.81
WQ ROW_BUFFER_HIT: Channel 0 
  ROW_BUFFER_MISS:       4901
  FULL:      20517
