WARNING: physical memory size is smaller than virtual memory size.

*** ChampSim Multicore Out-of-Order Simulator ***
Warmup Instructions: 50000000
Simulation Instructions: 600000000
Number of CPUs: 1
Page size: 4096

CPU 0 Tage branch predictor
Off-chip DRAM Size: 4 GiB Channels: 1 Width: 64-bit Data Race: 3200 MT/s
Heartbeat CPU 0 instructions: 10000001 cycles: 2500318 heartbeat IPC: 3.999 cumulative IPC: 3.999 (Simulation time: 00 hr 04 min 29 sec)
Heartbeat CPU 0 instructions: 20000002 cycles: 5037121 heartbeat IPC: 3.942 cumulative IPC: 3.971 (Simulation time: 00 hr 09 min 03 sec)
Heartbeat CPU 0 instructions: 30000002 cycles: 7537121 heartbeat IPC: 4 cumulative IPC: 3.98 (Simulation time: 00 hr 13 min 16 sec)
Heartbeat CPU 0 instructions: 40000002 cycles: 10037121 heartbeat IPC: 4 cumulative IPC: 3.985 (Simulation time: 00 hr 17 min 27 sec)
Heartbeat CPU 0 instructions: 50000002 cycles: 12537121 heartbeat IPC: 4 cumulative IPC: 3.988 (Simulation time: 00 hr 21 min 45 sec)
Warmup finished CPU 0 instructions: 50000002 cycles: 12537122 cumulative IPC: 3.988 (Simulation time: 00 hr 21 min 45 sec)
Warmup complete CPU 0 instructions: 50000002 cycles: 12537122 cumulative IPC: 3.988 (Simulation time: 00 hr 21 min 45 sec)
Heartbeat CPU 0 instructions: 60000001 cycles: 15551264 heartbeat IPC: 3.318 cumulative IPC: 3.318 (Simulation time: 00 hr 26 min 41 sec)
Heartbeat CPU 0 instructions: 70000004 cycles: 18644330 heartbeat IPC: 3.233 cumulative IPC: 3.275 (Simulation time: 00 hr 31 min 43 sec)
Heartbeat CPU 0 instructions: 80000001 cycles: 21718931 heartbeat IPC: 3.252 cumulative IPC: 3.267 (Simulation time: 00 hr 36 min 30 sec)
Heartbeat CPU 0 instructions: 90000001 cycles: 24685455 heartbeat IPC: 3.371 cumulative IPC: 3.293 (Simulation time: 00 hr 41 min 25 sec)
Heartbeat CPU 0 instructions: 100000000 cycles: 27621423 heartbeat IPC: 3.406 cumulative IPC: 3.315 (Simulation time: 00 hr 46 min 08 sec)
Heartbeat CPU 0 instructions: 110000000 cycles: 30581704 heartbeat IPC: 3.378 cumulative IPC: 3.325 (Simulation time: 00 hr 50 min 48 sec)
Heartbeat CPU 0 instructions: 120000001 cycles: 33576533 heartbeat IPC: 3.339 cumulative IPC: 3.327 (Simulation time: 00 hr 55 min 32 sec)
Heartbeat CPU 0 instructions: 130000001 cycles: 36452327 heartbeat IPC: 3.477 cumulative IPC: 3.345 (Simulation time: 01 hr 00 min 15 sec)
Heartbeat CPU 0 instructions: 140000001 cycles: 39538118 heartbeat IPC: 3.241 cumulative IPC: 3.333 (Simulation time: 01 hr 05 min 01 sec)
Heartbeat CPU 0 instructions: 150000001 cycles: 42576619 heartbeat IPC: 3.291 cumulative IPC: 3.329 (Simulation time: 01 hr 09 min 48 sec)
Heartbeat CPU 0 instructions: 160000004 cycles: 45627383 heartbeat IPC: 3.278 cumulative IPC: 3.324 (Simulation time: 01 hr 14 min 33 sec)
Heartbeat CPU 0 instructions: 170000000 cycles: 51768834 heartbeat IPC: 1.628 cumulative IPC: 3.059 (Simulation time: 01 hr 21 min 23 sec)
Heartbeat CPU 0 instructions: 180000004 cycles: 57388865 heartbeat IPC: 1.779 cumulative IPC: 2.898 (Simulation time: 01 hr 28 min 03 sec)
Heartbeat CPU 0 instructions: 190000001 cycles: 63574822 heartbeat IPC: 1.617 cumulative IPC: 2.743 (Simulation time: 01 hr 35 min 04 sec)
Heartbeat CPU 0 instructions: 200000004 cycles: 66475066 heartbeat IPC: 3.448 cumulative IPC: 2.781 (Simulation time: 01 hr 39 min 46 sec)
Heartbeat CPU 0 instructions: 210000001 cycles: 69374909 heartbeat IPC: 3.448 cumulative IPC: 2.815 (Simulation time: 01 hr 44 min 30 sec)
Heartbeat CPU 0 instructions: 220000000 cycles: 72241601 heartbeat IPC: 3.488 cumulative IPC: 2.847 (Simulation time: 01 hr 49 min 09 sec)
Heartbeat CPU 0 instructions: 230000002 cycles: 75236956 heartbeat IPC: 3.339 cumulative IPC: 2.871 (Simulation time: 01 hr 53 min 54 sec)
Heartbeat CPU 0 instructions: 240000003 cycles: 78248673 heartbeat IPC: 3.32 cumulative IPC: 2.891 (Simulation time: 01 hr 58 min 42 sec)
Heartbeat CPU 0 instructions: 250000000 cycles: 81257919 heartbeat IPC: 3.323 cumulative IPC: 2.91 (Simulation time: 02 hr 03 min 31 sec)
Heartbeat CPU 0 instructions: 260000002 cycles: 84207775 heartbeat IPC: 3.39 cumulative IPC: 2.93 (Simulation time: 02 hr 08 min 16 sec)
Heartbeat CPU 0 instructions: 270000002 cycles: 87107050 heartbeat IPC: 3.449 cumulative IPC: 2.95 (Simulation time: 02 hr 12 min 57 sec)
Heartbeat CPU 0 instructions: 280000002 cycles: 89975885 heartbeat IPC: 3.486 cumulative IPC: 2.97 (Simulation time: 02 hr 17 min 37 sec)
Heartbeat CPU 0 instructions: 290000002 cycles: 92932426 heartbeat IPC: 3.382 cumulative IPC: 2.985 (Simulation time: 02 hr 22 min 23 sec)
Heartbeat CPU 0 instructions: 300000003 cycles: 95812072 heartbeat IPC: 3.473 cumulative IPC: 3.002 (Simulation time: 02 hr 27 min 08 sec)
Heartbeat CPU 0 instructions: 310000001 cycles: 98850111 heartbeat IPC: 3.292 cumulative IPC: 3.012 (Simulation time: 02 hr 31 min 54 sec)
Heartbeat CPU 0 instructions: 320000003 cycles: 101846943 heartbeat IPC: 3.337 cumulative IPC: 3.023 (Simulation time: 02 hr 36 min 40 sec)
Heartbeat CPU 0 instructions: 330000003 cycles: 104828376 heartbeat IPC: 3.354 cumulative IPC: 3.034 (Simulation time: 02 hr 41 min 28 sec)
Heartbeat CPU 0 instructions: 340000000 cycles: 110942706 heartbeat IPC: 1.636 cumulative IPC: 2.947 (Simulation time: 02 hr 48 min 21 sec)
Heartbeat CPU 0 instructions: 350000000 cycles: 116728610 heartbeat IPC: 1.728 cumulative IPC: 2.879 (Simulation time: 02 hr 55 min 07 sec)
Heartbeat CPU 0 instructions: 360000004 cycles: 123037874 heartbeat IPC: 1.585 cumulative IPC: 2.805 (Simulation time: 03 hr 02 min 07 sec)
Heartbeat CPU 0 instructions: 370000000 cycles: 125948593 heartbeat IPC: 3.436 cumulative IPC: 2.822 (Simulation time: 03 hr 06 min 45 sec)
Heartbeat CPU 0 instructions: 380000003 cycles: 128815237 heartbeat IPC: 3.488 cumulative IPC: 2.838 (Simulation time: 03 hr 11 min 25 sec)
Heartbeat CPU 0 instructions: 390000002 cycles: 131754465 heartbeat IPC: 3.402 cumulative IPC: 2.852 (Simulation time: 03 hr 16 min 04 sec)
Heartbeat CPU 0 instructions: 400000004 cycles: 134639046 heartbeat IPC: 3.467 cumulative IPC: 2.866 (Simulation time: 03 hr 20 min 40 sec)
Heartbeat CPU 0 instructions: 410000002 cycles: 137562957 heartbeat IPC: 3.42 cumulative IPC: 2.879 (Simulation time: 03 hr 25 min 19 sec)
Heartbeat CPU 0 instructions: 420000003 cycles: 140611804 heartbeat IPC: 3.28 cumulative IPC: 2.889 (Simulation time: 03 hr 30 min 04 sec)
Heartbeat CPU 0 instructions: 430000001 cycles: 143610212 heartbeat IPC: 3.335 cumulative IPC: 2.899 (Simulation time: 03 hr 34 min 52 sec)
Heartbeat CPU 0 instructions: 440000004 cycles: 146734461 heartbeat IPC: 3.201 cumulative IPC: 2.906 (Simulation time: 03 hr 39 min 47 sec)
Heartbeat CPU 0 instructions: 450000002 cycles: 149648964 heartbeat IPC: 3.431 cumulative IPC: 2.917 (Simulation time: 03 hr 44 min 34 sec)
Heartbeat CPU 0 instructions: 460000000 cycles: 152571314 heartbeat IPC: 3.422 cumulative IPC: 2.928 (Simulation time: 03 hr 49 min 14 sec)
Heartbeat CPU 0 instructions: 470000001 cycles: 155416133 heartbeat IPC: 3.515 cumulative IPC: 2.94 (Simulation time: 03 hr 53 min 56 sec)
Heartbeat CPU 0 instructions: 480000003 cycles: 158455229 heartbeat IPC: 3.29 cumulative IPC: 2.947 (Simulation time: 03 hr 58 min 40 sec)
Heartbeat CPU 0 instructions: 490000004 cycles: 161276227 heartbeat IPC: 3.545 cumulative IPC: 2.958 (Simulation time: 04 hr 03 min 17 sec)
Heartbeat CPU 0 instructions: 500000004 cycles: 164255630 heartbeat IPC: 3.356 cumulative IPC: 2.966 (Simulation time: 04 hr 07 min 58 sec)
Heartbeat CPU 0 instructions: 510000003 cycles: 167269027 heartbeat IPC: 3.319 cumulative IPC: 2.973 (Simulation time: 04 hr 12 min 44 sec)
Heartbeat CPU 0 instructions: 520000001 cycles: 170147438 heartbeat IPC: 3.474 cumulative IPC: 2.982 (Simulation time: 04 hr 17 min 28 sec)
Heartbeat CPU 0 instructions: 530000001 cycles: 173154647 heartbeat IPC: 3.325 cumulative IPC: 2.988 (Simulation time: 04 hr 22 min 12 sec)
Heartbeat CPU 0 instructions: 540000000 cycles: 176110712 heartbeat IPC: 3.383 cumulative IPC: 2.996 (Simulation time: 04 hr 26 min 53 sec)
Heartbeat CPU 0 instructions: 550000001 cycles: 179084897 heartbeat IPC: 3.362 cumulative IPC: 3.002 (Simulation time: 04 hr 31 min 36 sec)
Heartbeat CPU 0 instructions: 560000000 cycles: 182170645 heartbeat IPC: 3.241 cumulative IPC: 3.006 (Simulation time: 04 hr 36 min 25 sec)
Heartbeat CPU 0 instructions: 570000004 cycles: 186847823 heartbeat IPC: 2.138 cumulative IPC: 2.983 (Simulation time: 04 hr 42 min 17 sec)
Heartbeat CPU 0 instructions: 580000003 cycles: 193045984 heartbeat IPC: 1.613 cumulative IPC: 2.936 (Simulation time: 04 hr 49 min 16 sec)
Heartbeat CPU 0 instructions: 590000002 cycles: 200422031 heartbeat IPC: 1.356 cumulative IPC: 2.874 (Simulation time: 04 hr 56 min 59 sec)
Heartbeat CPU 0 instructions: 600000004 cycles: 203402028 heartbeat IPC: 3.356 cumulative IPC: 2.882 (Simulation time: 05 hr 01 min 39 sec)
Heartbeat CPU 0 instructions: 610000002 cycles: 206317535 heartbeat IPC: 3.43 cumulative IPC: 2.89 (Simulation time: 05 hr 06 min 26 sec)
Heartbeat CPU 0 instructions: 620000001 cycles: 209067032 heartbeat IPC: 3.637 cumulative IPC: 2.9 (Simulation time: 05 hr 11 min 04 sec)
Heartbeat CPU 0 instructions: 630000002 cycles: 211993419 heartbeat IPC: 3.417 cumulative IPC: 2.908 (Simulation time: 05 hr 16 min 04 sec)
Heartbeat CPU 0 instructions: 640000004 cycles: 214924388 heartbeat IPC: 3.412 cumulative IPC: 2.915 (Simulation time: 05 hr 21 min 04 sec)
Heartbeat CPU 0 instructions: 650000000 cycles: 217657331 heartbeat IPC: 3.659 cumulative IPC: 2.925 (Simulation time: 05 hr 25 min 49 sec)
Simulation finished CPU 0 instructions: 600000001 cycles: 205120211 cumulative IPC: 2.925 (Simulation time: 05 hr 25 min 49 sec)
Simulation complete CPU 0 instructions: 600000001 cycles: 205120211 cumulative IPC: 2.925 (Simulation time: 05 hr 25 min 49 sec)

ChampSim completed all CPUs

=== Simulation ===
CPU 0 runs traces/400.perlbench-41B.champsimtrace.xz
Region of Interest Statistics

CPU 0 cumulative IPC: 2.925 instructions: 600000001 cycles: 205120211
CPU 0 Branch Prediction Accuracy: 99.19% MPKI: 1.684 Average ROB Occupancy at Mispredict: 101.5
Branch type MPKI
BRANCH_DIRECT_JUMP: 0.0123
BRANCH_INDIRECT: 0.323
BRANCH_CONDITIONAL: 1.14
BRANCH_DIRECT_CALL: 0.0043
BRANCH_INDIRECT_CALL: 0.2
BRANCH_RETURN: 0.00828

LLC TOTAL        ACCESS:     939360 HIT:     706408 MISS:     232952
LLC LOAD         ACCESS:     401495 HIT:     302327 MISS:      99168
LLC RFO          ACCESS:      32527 HIT:      20906 MISS:      11621
LLC PREFETCH     ACCESS:     401495 HIT:     299460 MISS:     102035
LLC WRITE        ACCESS:      84776 HIT:      76554 MISS:       8222
LLC TRANSLATION  ACCESS:      19067 HIT:       7161 MISS:      11906
LLC PREFETCH REQUESTED:     401495 ISSUED:     401495 USEFUL:      21035 USELESS:      61508
LLC AVERAGE MISS LATENCY: 610 cycles
cpu0_DTLB TOTAL        ACCESS:  129750423 HIT:  129047570 MISS:     702853
cpu0_DTLB LOAD         ACCESS:  129750423 HIT:  129047570 MISS:     702853
cpu0_DTLB RFO          ACCESS:          0 HIT:          0 MISS:          0
cpu0_DTLB PREFETCH     ACCESS:          0 HIT:          0 MISS:          0
cpu0_DTLB WRITE        ACCESS:          0 HIT:          0 MISS:          0
cpu0_DTLB TRANSLATION  ACCESS:          0 HIT:          0 MISS:          0
cpu0_DTLB PREFETCH REQUESTED:          0 ISSUED:          0 USEFUL:          0 USELESS:          0
cpu0_DTLB AVERAGE MISS LATENCY: 16.04 cycles
cpu0_ITLB TOTAL        ACCESS:    4870478 HIT:    4808297 MISS:      62181
cpu0_ITLB LOAD         ACCESS:    4870478 HIT:    4808297 MISS:      62181
cpu0_ITLB RFO          ACCESS:          0 HIT:          0 MISS:          0
cpu0_ITLB PREFETCH     ACCESS:          0 HIT:          0 MISS:          0
cpu0_ITLB WRITE        ACCESS:          0 HIT:          0 MISS:          0
cpu0_ITLB TRANSLATION  ACCESS:          0 HIT:          0 MISS:          0
cpu0_ITLB PREFETCH REQUESTED:          0 ISSUED:          0 USEFUL:          0 USELESS:          0
cpu0_ITLB AVERAGE MISS LATENCY: 6.136 cycles
cpu0_L1D TOTAL        ACCESS:  174361036 HIT:  172606121 MISS:    1754915
cpu0_L1D LOAD         ACCESS:   91338689 HIT:   89979969 MISS:    1358720
cpu0_L1D RFO          ACCESS:          0 HIT:          0 MISS:          0
cpu0_L1D PREFETCH     ACCESS:          0 HIT:          0 MISS:          0
cpu0_L1D WRITE        ACCESS:   82997883 HIT:   82625087 MISS:     372796
cpu0_L1D TRANSLATION  ACCESS:      24464 HIT:       1065 MISS:      23399
cpu0_L1D PREFETCH REQUESTED:          0 ISSUED:          0 USEFUL:          0 USELESS:          0
cpu0_L1D AVERAGE MISS LATENCY: 53.56 cycles
cpu0_L1I TOTAL        ACCESS:    5649946 HIT:    4845574 MISS:     804372
cpu0_L1I LOAD         ACCESS:    5649946 HIT:    4845574 MISS:     804372
cpu0_L1I RFO          ACCESS:          0 HIT:          0 MISS:          0
cpu0_L1I PREFETCH     ACCESS:          0 HIT:          0 MISS:          0
cpu0_L1I WRITE        ACCESS:          0 HIT:          0 MISS:          0
cpu0_L1I TRANSLATION  ACCESS:          0 HIT:          0 MISS:          0
cpu0_L1I PREFETCH REQUESTED:          0 ISSUED:          0 USEFUL:          0 USELESS:          0
cpu0_L1I AVERAGE MISS LATENCY: 8.375 cycles
cpu0_L2C TOTAL        ACCESS:    1667881 HIT:    1212972 MISS:     454909
cpu0_L2C LOAD         ACCESS:    1315256 HIT:     913761 MISS:     401495
cpu0_L2C RFO          ACCESS:      89612 HIT:      57085 MISS:      32527
cpu0_L2C PREFETCH     ACCESS:          0 HIT:          0 MISS:          0
cpu0_L2C WRITE        ACCESS:     239698 HIT:     237878 MISS:       1820
cpu0_L2C TRANSLATION  ACCESS:      23315 HIT:       4248 MISS:      19067
cpu0_L2C PREFETCH REQUESTED:          0 ISSUED:          0 USEFUL:          0 USELESS:          0
cpu0_L2C AVERAGE MISS LATENCY: 204.5 cycles
cpu0_STLB TOTAL        ACCESS:     508427 HIT:     485644 MISS:      22783
cpu0_STLB LOAD         ACCESS:     508427 HIT:     485644 MISS:      22783
cpu0_STLB RFO          ACCESS:          0 HIT:          0 MISS:          0
cpu0_STLB PREFETCH     ACCESS:          0 HIT:          0 MISS:          0
cpu0_STLB WRITE        ACCESS:          0 HIT:          0 MISS:          0
cpu0_STLB TRANSLATION  ACCESS:          0 HIT:          0 MISS:          0
cpu0_STLB PREFETCH REQUESTED:          0 ISSUED:          0 USEFUL:          0 USELESS:          0
cpu0_STLB AVERAGE MISS LATENCY: 388.5 cycles

DRAM Statistics

Channel 0 RQ ROW_BUFFER_HIT:      35975
  ROW_BUFFER_MISS:     156881
 AVG DBUS CONGESTED CYCLE: 3.876
WQ ROW_BUFFER_HIT: Channel 0 
  ROW_BUFFER_MISS:       5272
  FULL:      15856
