WARNING: physical memory size is smaller than virtual memory size.

*** ChampSim Multicore Out-of-Order Simulator ***
Warmup Instructions: 50000000
Simulation Instructions: 600000000
Number of CPUs: 1
Page size: 4096

Off-chip DRAM Size: 4 GiB Channels: 1 Width: 64-bit Data Race: 3200 MT/s
Heartbeat CPU 0 instructions: 10000001 cycles: 2500318 heartbeat IPC: 3.999 cumulative IPC: 3.999 (Simulation time: 00 hr 00 min 28 sec)
Heartbeat CPU 0 instructions: 20000002 cycles: 5037122 heartbeat IPC: 3.942 cumulative IPC: 3.971 (Simulation time: 00 hr 01 min 01 sec)
Heartbeat CPU 0 instructions: 30000002 cycles: 7537122 heartbeat IPC: 4 cumulative IPC: 3.98 (Simulation time: 00 hr 01 min 35 sec)
Heartbeat CPU 0 instructions: 40000002 cycles: 10037122 heartbeat IPC: 4 cumulative IPC: 3.985 (Simulation time: 00 hr 02 min 14 sec)
Heartbeat CPU 0 instructions: 50000002 cycles: 12537122 heartbeat IPC: 4 cumulative IPC: 3.988 (Simulation time: 00 hr 02 min 56 sec)
Warmup finished CPU 0 instructions: 50000002 cycles: 12537123 cumulative IPC: 3.988 (Simulation time: 00 hr 02 min 56 sec)
Warmup complete CPU 0 instructions: 50000002 cycles: 12537123 cumulative IPC: 3.988 (Simulation time: 00 hr 02 min 56 sec)
Heartbeat CPU 0 instructions: 60000000 cycles: 17143021 heartbeat IPC: 2.171 cumulative IPC: 2.171 (Simulation time: 00 hr 04 min 01 sec)
Heartbeat CPU 0 instructions: 70000004 cycles: 21415661 heartbeat IPC: 2.34 cumulative IPC: 2.253 (Simulation time: 00 hr 05 min 09 sec)
Heartbeat CPU 0 instructions: 80000001 cycles: 26004299 heartbeat IPC: 2.179 cumulative IPC: 2.228 (Simulation time: 00 hr 06 min 15 sec)
Heartbeat CPU 0 instructions: 90000001 cycles: 30129610 heartbeat IPC: 2.424 cumulative IPC: 2.274 (Simulation time: 00 hr 07 min 17 sec)
Heartbeat CPU 0 instructions: 100000000 cycles: 34178146 heartbeat IPC: 2.47 cumulative IPC: 2.31 (Simulation time: 00 hr 08 min 18 sec)
Heartbeat CPU 0 instructions: 110000000 cycles: 38418856 heartbeat IPC: 2.358 cumulative IPC: 2.318 (Simulation time: 00 hr 09 min 17 sec)
Heartbeat CPU 0 instructions: 120000001 cycles: 42428250 heartbeat IPC: 2.494 cumulative IPC: 2.342 (Simulation time: 00 hr 10 min 16 sec)
Heartbeat CPU 0 instructions: 130000001 cycles: 46165961 heartbeat IPC: 2.675 cumulative IPC: 2.379 (Simulation time: 00 hr 11 min 14 sec)
Heartbeat CPU 0 instructions: 140000001 cycles: 50331980 heartbeat IPC: 2.4 cumulative IPC: 2.381 (Simulation time: 00 hr 12 min 16 sec)
Heartbeat CPU 0 instructions: 150000001 cycles: 54531044 heartbeat IPC: 2.381 cumulative IPC: 2.381 (Simulation time: 00 hr 13 min 21 sec)
Heartbeat CPU 0 instructions: 160000004 cycles: 58949216 heartbeat IPC: 2.263 cumulative IPC: 2.37 (Simulation time: 00 hr 14 min 28 sec)
Heartbeat CPU 0 instructions: 170000000 cycles: 67747533 heartbeat IPC: 1.137 cumulative IPC: 2.174 (Simulation time: 00 hr 16 min 10 sec)
Heartbeat CPU 0 instructions: 180000004 cycles: 74905789 heartbeat IPC: 1.397 cumulative IPC: 2.084 (Simulation time: 00 hr 17 min 40 sec)
Heartbeat CPU 0 instructions: 190000001 cycles: 81726010 heartbeat IPC: 1.466 cumulative IPC: 2.023 (Simulation time: 00 hr 19 min 11 sec)
Heartbeat CPU 0 instructions: 200000004 cycles: 85376002 heartbeat IPC: 2.74 cumulative IPC: 2.059 (Simulation time: 00 hr 20 min 11 sec)
Heartbeat CPU 0 instructions: 210000001 cycles: 89181645 heartbeat IPC: 2.628 cumulative IPC: 2.088 (Simulation time: 00 hr 21 min 13 sec)
Heartbeat CPU 0 instructions: 220000000 cycles: 93086753 heartbeat IPC: 2.561 cumulative IPC: 2.111 (Simulation time: 00 hr 22 min 15 sec)
Heartbeat CPU 0 instructions: 230000002 cycles: 97613133 heartbeat IPC: 2.209 cumulative IPC: 2.116 (Simulation time: 00 hr 23 min 20 sec)
Heartbeat CPU 0 instructions: 240000000 cycles: 101729682 heartbeat IPC: 2.429 cumulative IPC: 2.13 (Simulation time: 00 hr 24 min 23 sec)
Heartbeat CPU 0 instructions: 250000000 cycles: 105965325 heartbeat IPC: 2.361 cumulative IPC: 2.141 (Simulation time: 00 hr 25 min 24 sec)
Heartbeat CPU 0 instructions: 260000000 cycles: 110089560 heartbeat IPC: 2.425 cumulative IPC: 2.153 (Simulation time: 00 hr 26 min 29 sec)
Heartbeat CPU 0 instructions: 270000002 cycles: 113891699 heartbeat IPC: 2.63 cumulative IPC: 2.171 (Simulation time: 00 hr 27 min 34 sec)
Heartbeat CPU 0 instructions: 280000002 cycles: 118035254 heartbeat IPC: 2.413 cumulative IPC: 2.18 (Simulation time: 00 hr 28 min 39 sec)
Heartbeat CPU 0 instructions: 290000001 cycles: 121906196 heartbeat IPC: 2.583 cumulative IPC: 2.194 (Simulation time: 00 hr 29 min 41 sec)
Heartbeat CPU 0 instructions: 300000003 cycles: 125706291 heartbeat IPC: 2.632 cumulative IPC: 2.209 (Simulation time: 00 hr 30 min 47 sec)
Heartbeat CPU 0 instructions: 310000001 cycles: 129790743 heartbeat IPC: 2.448 cumulative IPC: 2.217 (Simulation time: 00 hr 31 min 52 sec)
Heartbeat CPU 0 instructions: 320000003 cycles: 133850010 heartbeat IPC: 2.463 cumulative IPC: 2.226 (Simulation time: 00 hr 32 min 56 sec)
Heartbeat CPU 0 instructions: 330000003 cycles: 138232319 heartbeat IPC: 2.282 cumulative IPC: 2.228 (Simulation time: 00 hr 34 min 06 sec)
Heartbeat CPU 0 instructions: 340000000 cycles: 147297315 heartbeat IPC: 1.103 cumulative IPC: 2.152 (Simulation time: 00 hr 35 min 47 sec)
Heartbeat CPU 0 instructions: 350000000 cycles: 154914516 heartbeat IPC: 1.313 cumulative IPC: 2.107 (Simulation time: 00 hr 37 min 26 sec)
Heartbeat CPU 0 instructions: 360000004 cycles: 162135945 heartbeat IPC: 1.385 cumulative IPC: 2.072 (Simulation time: 00 hr 38 min 57 sec)
Heartbeat CPU 0 instructions: 370000000 cycles: 165476577 heartbeat IPC: 2.993 cumulative IPC: 2.092 (Simulation time: 00 hr 39 min 57 sec)
Heartbeat CPU 0 instructions: 380000001 cycles: 168797950 heartbeat IPC: 3.011 cumulative IPC: 2.112 (Simulation time: 00 hr 40 min 59 sec)
Heartbeat CPU 0 instructions: 390000004 cycles: 172472452 heartbeat IPC: 2.721 cumulative IPC: 2.126 (Simulation time: 00 hr 41 min 59 sec)
Heartbeat CPU 0 instructions: 400000004 cycles: 176247843 heartbeat IPC: 2.649 cumulative IPC: 2.138 (Simulation time: 00 hr 43 min 00 sec)
Heartbeat CPU 0 instructions: 410000001 cycles: 179816436 heartbeat IPC: 2.802 cumulative IPC: 2.152 (Simulation time: 00 hr 43 min 59 sec)
Heartbeat CPU 0 instructions: 420000003 cycles: 183756255 heartbeat IPC: 2.538 cumulative IPC: 2.161 (Simulation time: 00 hr 45 min 00 sec)
Heartbeat CPU 0 instructions: 430000001 cycles: 187366039 heartbeat IPC: 2.77 cumulative IPC: 2.174 (Simulation time: 00 hr 46 min 02 sec)
Heartbeat CPU 0 instructions: 440000004 cycles: 191391199 heartbeat IPC: 2.484 cumulative IPC: 2.181 (Simulation time: 00 hr 47 min 06 sec)
Heartbeat CPU 0 instructions: 450000002 cycles: 195064773 heartbeat IPC: 2.722 cumulative IPC: 2.191 (Simulation time: 00 hr 48 min 06 sec)
Heartbeat CPU 0 instructions: 460000000 cycles: 198703092 heartbeat IPC: 2.749 cumulative IPC: 2.202 (Simulation time: 00 hr 49 min 06 sec)
Heartbeat CPU 0 instructions: 470000000 cycles: 202128600 heartbeat IPC: 2.919 cumulative IPC: 2.215 (Simulation time: 00 hr 50 min 04 sec)
Heartbeat CPU 0 instructions: 480000003 cycles: 205933210 heartbeat IPC: 2.628 cumulative IPC: 2.223 (Simulation time: 00 hr 51 min 05 sec)
Heartbeat CPU 0 instructions: 490000000 cycles: 209552081 heartbeat IPC: 2.763 cumulative IPC: 2.233 (Simulation time: 00 hr 52 min 02 sec)
Heartbeat CPU 0 instructions: 500000000 cycles: 213240428 heartbeat IPC: 2.711 cumulative IPC: 2.242 (Simulation time: 00 hr 53 min 01 sec)
Heartbeat CPU 0 instructions: 510000003 cycles: 216899959 heartbeat IPC: 2.733 cumulative IPC: 2.251 (Simulation time: 00 hr 54 min 02 sec)
Heartbeat CPU 0 instructions: 520000001 cycles: 220290483 heartbeat IPC: 2.949 cumulative IPC: 2.262 (Simulation time: 00 hr 55 min 01 sec)
Heartbeat CPU 0 instructions: 530000002 cycles: 223956686 heartbeat IPC: 2.728 cumulative IPC: 2.27 (Simulation time: 00 hr 56 min 01 sec)
Heartbeat CPU 0 instructions: 540000000 cycles: 227468735 heartbeat IPC: 2.847 cumulative IPC: 2.28 (Simulation time: 00 hr 56 min 58 sec)
Heartbeat CPU 0 instructions: 550000001 cycles: 231159049 heartbeat IPC: 2.71 cumulative IPC: 2.287 (Simulation time: 00 hr 57 min 58 sec)
Heartbeat CPU 0 instructions: 560000000 cycles: 235139861 heartbeat IPC: 2.512 cumulative IPC: 2.291 (Simulation time: 00 hr 59 min 03 sec)
Heartbeat CPU 0 instructions: 570000004 cycles: 241525280 heartbeat IPC: 1.566 cumulative IPC: 2.271 (Simulation time: 01 hr 00 min 25 sec)
Heartbeat CPU 0 instructions: 580000003 cycles: 250168712 heartbeat IPC: 1.157 cumulative IPC: 2.23 (Simulation time: 01 hr 02 min 06 sec)
Heartbeat CPU 0 instructions: 590000002 cycles: 258775150 heartbeat IPC: 1.162 cumulative IPC: 2.193 (Simulation time: 01 hr 03 min 48 sec)
Heartbeat CPU 0 instructions: 600000000 cycles: 262381202 heartbeat IPC: 2.773 cumulative IPC: 2.201 (Simulation time: 01 hr 04 min 48 sec)
Heartbeat CPU 0 instructions: 610000000 cycles: 266159302 heartbeat IPC: 2.647 cumulative IPC: 2.208 (Simulation time: 01 hr 05 min 48 sec)
Heartbeat CPU 0 instructions: 620000001 cycles: 269534710 heartbeat IPC: 2.963 cumulative IPC: 2.218 (Simulation time: 01 hr 06 min 46 sec)
Heartbeat CPU 0 instructions: 630000002 cycles: 273728734 heartbeat IPC: 2.384 cumulative IPC: 2.221 (Simulation time: 01 hr 07 min 50 sec)
Heartbeat CPU 0 instructions: 640000001 cycles: 277596201 heartbeat IPC: 2.586 cumulative IPC: 2.226 (Simulation time: 01 hr 08 min 51 sec)
Heartbeat CPU 0 instructions: 650000000 cycles: 281318563 heartbeat IPC: 2.686 cumulative IPC: 2.232 (Simulation time: 01 hr 09 min 52 sec)
Simulation finished CPU 0 instructions: 600000001 cycles: 268781442 cumulative IPC: 2.232 (Simulation time: 01 hr 09 min 52 sec)
Simulation complete CPU 0 instructions: 600000001 cycles: 268781442 cumulative IPC: 2.232 (Simulation time: 01 hr 09 min 52 sec)

ChampSim completed all CPUs

=== Simulation ===
CPU 0 runs traces/400.perlbench-41B.champsimtrace.xz
Region of Interest Statistics

CPU 0 cumulative IPC: 2.232 instructions: 600000001 cycles: 268781442
CPU 0 Branch Prediction Accuracy: 96.56% MPKI: 7.112 Average ROB Occupancy at Mispredict: 47.14
Branch type MPKI
BRANCH_DIRECT_JUMP: 0.0123
BRANCH_INDIRECT: 0.323
BRANCH_CONDITIONAL: 6.56
BRANCH_DIRECT_CALL: 0.0043
BRANCH_INDIRECT_CALL: 0.2
BRANCH_RETURN: 0.00828

LLC TOTAL        ACCESS:     593356 HIT:     448539 MISS:     144817
LLC LOAD         ACCESS:     403244 HIT:     298194 MISS:     105050
LLC RFO          ACCESS:      32482 HIT:      21767 MISS:      10715
LLC PREFETCH     ACCESS:      53199 HIT:      41764 MISS:      11435
LLC WRITE        ACCESS:      85215 HIT:      77795 MISS:       7420
LLC TRANSLATION  ACCESS:      19216 HIT:       9019 MISS:      10197
LLC PREFETCH REQUESTED:      53199 ISSUED:      53199 USEFUL:       6807 USELESS:       3327
LLC AVERAGE MISS LATENCY: 523 cycles
cpu0_DTLB TOTAL        ACCESS:  141897828 HIT:  141211342 MISS:     686486
cpu0_DTLB LOAD         ACCESS:  141897828 HIT:  141211342 MISS:     686486
cpu0_DTLB RFO          ACCESS:          0 HIT:          0 MISS:          0
cpu0_DTLB PREFETCH     ACCESS:          0 HIT:          0 MISS:          0
cpu0_DTLB WRITE        ACCESS:          0 HIT:          0 MISS:          0
cpu0_DTLB TRANSLATION  ACCESS:          0 HIT:          0 MISS:          0
cpu0_DTLB PREFETCH REQUESTED:          0 ISSUED:          0 USEFUL:          0 USELESS:          0
cpu0_DTLB AVERAGE MISS LATENCY: 14.03 cycles
cpu0_ITLB TOTAL        ACCESS:    4861114 HIT:    4808004 MISS:      53110
cpu0_ITLB LOAD         ACCESS:    4861114 HIT:    4808004 MISS:      53110
cpu0_ITLB RFO          ACCESS:          0 HIT:          0 MISS:          0
cpu0_ITLB PREFETCH     ACCESS:          0 HIT:          0 MISS:          0
cpu0_ITLB WRITE        ACCESS:          0 HIT:          0 MISS:          0
cpu0_ITLB TRANSLATION  ACCESS:          0 HIT:          0 MISS:          0
cpu0_ITLB PREFETCH REQUESTED:          0 ISSUED:          0 USEFUL:          0 USELESS:          0
cpu0_ITLB AVERAGE MISS LATENCY: 6.322 cycles
cpu0_L1D TOTAL        ACCESS:  188565380 HIT:  186869182 MISS:    1696198
cpu0_L1D LOAD         ACCESS:  105198031 HIT:  103875857 MISS:    1322174
cpu0_L1D RFO          ACCESS:          0 HIT:          0 MISS:          0
cpu0_L1D PREFETCH     ACCESS:          0 HIT:          0 MISS:          0
cpu0_L1D WRITE        ACCESS:   83342883 HIT:   82992268 MISS:     350615
cpu0_L1D TRANSLATION  ACCESS:      24466 HIT:       1057 MISS:      23409
cpu0_L1D PREFETCH REQUESTED:          0 ISSUED:          0 USEFUL:          0 USELESS:          0
cpu0_L1D AVERAGE MISS LATENCY: 46.69 cycles
cpu0_L1I TOTAL        ACCESS:    5598569 HIT:    4855078 MISS:     743491
cpu0_L1I LOAD         ACCESS:    5598569 HIT:    4855078 MISS:     743491
cpu0_L1I RFO          ACCESS:          0 HIT:          0 MISS:          0
cpu0_L1I PREFETCH     ACCESS:          0 HIT:          0 MISS:          0
cpu0_L1I WRITE        ACCESS:          0 HIT:          0 MISS:          0
cpu0_L1I TRANSLATION  ACCESS:          0 HIT:          0 MISS:          0
cpu0_L1I PREFETCH REQUESTED:          0 ISSUED:          0 USEFUL:          0 USELESS:          0
cpu0_L1I AVERAGE MISS LATENCY: 12.2 cycles
cpu0_L2C TOTAL        ACCESS:    1665912 HIT:    1209162 MISS:     456750
cpu0_L2C LOAD         ACCESS:    1316015 HIT:     912771 MISS:     403244
cpu0_L2C RFO          ACCESS:      88332 HIT:      55850 MISS:      32482
cpu0_L2C PREFETCH     ACCESS:          0 HIT:          0 MISS:          0
cpu0_L2C WRITE        ACCESS:     238228 HIT:     236420 MISS:       1808
cpu0_L2C TRANSLATION  ACCESS:      23337 HIT:       4121 MISS:      19216
cpu0_L2C PREFETCH REQUESTED:          0 ISSUED:          0 USEFUL:          0 USELESS:          0
cpu0_L2C AVERAGE MISS LATENCY: 170.1 cycles
cpu0_STLB TOTAL        ACCESS:     507115 HIT:     484320 MISS:      22795
cpu0_STLB LOAD         ACCESS:     507115 HIT:     484320 MISS:      22795
cpu0_STLB RFO          ACCESS:          0 HIT:          0 MISS:          0
cpu0_STLB PREFETCH     ACCESS:          0 HIT:          0 MISS:          0
cpu0_STLB WRITE        ACCESS:          0 HIT:          0 MISS:          0
cpu0_STLB TRANSLATION  ACCESS:          0 HIT:          0 MISS:          0
cpu0_STLB PREFETCH REQUESTED:          0 ISSUED:          0 USEFUL:          0 USELESS:          0
cpu0_STLB AVERAGE MISS LATENCY: 298 cycles

DRAM Statistics

Channel 0 RQ ROW_BUFFER_HIT:      22640
  ROW_BUFFER_MISS:     113343
 AVG DBUS CONGESTED CYCLE: 3.798
WQ ROW_BUFFER_HIT: Channel 0 
  ROW_BUFFER_MISS:       7299
  FULL:      17464
