WARNING: physical memory size is smaller than virtual memory size.

*** ChampSim Multicore Out-of-Order Simulator ***
Warmup Instructions: 50000000
Simulation Instructions: 600000000
Number of CPUs: 1
Page size: 4096

Off-chip DRAM Size: 4 GiB Channels: 1 Width: 64-bit Data Race: 3200 MT/s
Heartbeat CPU 0 instructions: 10000001 cycles: 2500318 heartbeat IPC: 3.999 cumulative IPC: 3.999 (Simulation time: 00 hr 01 min 39 sec)
Heartbeat CPU 0 instructions: 20000002 cycles: 5037122 heartbeat IPC: 3.942 cumulative IPC: 3.971 (Simulation time: 00 hr 03 min 52 sec)
Heartbeat CPU 0 instructions: 30000002 cycles: 7537122 heartbeat IPC: 4 cumulative IPC: 3.98 (Simulation time: 00 hr 06 min 18 sec)
Heartbeat CPU 0 instructions: 40000002 cycles: 10037122 heartbeat IPC: 4 cumulative IPC: 3.985 (Simulation time: 00 hr 09 min 12 sec)
Heartbeat CPU 0 instructions: 50000002 cycles: 12537122 heartbeat IPC: 4 cumulative IPC: 3.988 (Simulation time: 00 hr 12 min 41 sec)
Warmup finished CPU 0 instructions: 50000002 cycles: 12537123 cumulative IPC: 3.988 (Simulation time: 00 hr 12 min 41 sec)
Warmup complete CPU 0 instructions: 50000002 cycles: 12537123 cumulative IPC: 3.988 (Simulation time: 00 hr 12 min 41 sec)
Heartbeat CPU 0 instructions: 60000000 cycles: 17142546 heartbeat IPC: 2.171 cumulative IPC: 2.171 (Simulation time: 00 hr 17 min 32 sec)
Heartbeat CPU 0 instructions: 70000004 cycles: 21418967 heartbeat IPC: 2.338 cumulative IPC: 2.252 (Simulation time: 00 hr 22 min 06 sec)
Heartbeat CPU 0 instructions: 80000001 cycles: 26012025 heartbeat IPC: 2.177 cumulative IPC: 2.226 (Simulation time: 00 hr 26 min 52 sec)
Heartbeat CPU 0 instructions: 90000001 cycles: 30134382 heartbeat IPC: 2.426 cumulative IPC: 2.273 (Simulation time: 00 hr 31 min 25 sec)
Heartbeat CPU 0 instructions: 100000000 cycles: 34185857 heartbeat IPC: 2.468 cumulative IPC: 2.31 (Simulation time: 00 hr 35 min 56 sec)
Heartbeat CPU 0 instructions: 110000000 cycles: 38424554 heartbeat IPC: 2.359 cumulative IPC: 2.318 (Simulation time: 00 hr 40 min 30 sec)
Heartbeat CPU 0 instructions: 120000001 cycles: 42434387 heartbeat IPC: 2.494 cumulative IPC: 2.341 (Simulation time: 00 hr 44 min 57 sec)
Heartbeat CPU 0 instructions: 130000001 cycles: 46165641 heartbeat IPC: 2.68 cumulative IPC: 2.379 (Simulation time: 00 hr 49 min 21 sec)
Heartbeat CPU 0 instructions: 140000001 cycles: 50326238 heartbeat IPC: 2.404 cumulative IPC: 2.382 (Simulation time: 00 hr 53 min 54 sec)
Heartbeat CPU 0 instructions: 150000001 cycles: 54519493 heartbeat IPC: 2.385 cumulative IPC: 2.382 (Simulation time: 00 hr 58 min 27 sec)
Heartbeat CPU 0 instructions: 160000004 cycles: 58926428 heartbeat IPC: 2.269 cumulative IPC: 2.371 (Simulation time: 01 hr 03 min 07 sec)
Heartbeat CPU 0 instructions: 170000000 cycles: 68906446 heartbeat IPC: 1.002 cumulative IPC: 2.129 (Simulation time: 01 hr 11 min 12 sec)
Heartbeat CPU 0 instructions: 180000004 cycles: 79272998 heartbeat IPC: 0.9646 cumulative IPC: 1.948 (Simulation time: 01 hr 19 min 41 sec)
Heartbeat CPU 0 instructions: 190000001 cycles: 89046890 heartbeat IPC: 1.023 cumulative IPC: 1.83 (Simulation time: 01 hr 27 min 51 sec)
Heartbeat CPU 0 instructions: 200000004 cycles: 92801195 heartbeat IPC: 2.664 cumulative IPC: 1.869 (Simulation time: 01 hr 32 min 13 sec)
Heartbeat CPU 0 instructions: 210000001 cycles: 96709033 heartbeat IPC: 2.559 cumulative IPC: 1.901 (Simulation time: 01 hr 36 min 40 sec)
Heartbeat CPU 0 instructions: 220000000 cycles: 100659981 heartbeat IPC: 2.531 cumulative IPC: 1.929 (Simulation time: 01 hr 41 min 05 sec)
Heartbeat CPU 0 instructions: 230000002 cycles: 105315355 heartbeat IPC: 2.148 cumulative IPC: 1.94 (Simulation time: 01 hr 45 min 54 sec)
Heartbeat CPU 0 instructions: 240000000 cycles: 109490250 heartbeat IPC: 2.395 cumulative IPC: 1.96 (Simulation time: 01 hr 50 min 29 sec)
Heartbeat CPU 0 instructions: 250000000 cycles: 113798060 heartbeat IPC: 2.321 cumulative IPC: 1.975 (Simulation time: 01 hr 55 min 09 sec)
Heartbeat CPU 0 instructions: 260000000 cycles: 117976708 heartbeat IPC: 2.393 cumulative IPC: 1.992 (Simulation time: 01 hr 59 min 41 sec)
Heartbeat CPU 0 instructions: 270000002 cycles: 121812532 heartbeat IPC: 2.607 cumulative IPC: 2.013 (Simulation time: 02 hr 04 min 03 sec)
Heartbeat CPU 0 instructions: 280000002 cycles: 125978503 heartbeat IPC: 2.4 cumulative IPC: 2.027 (Simulation time: 02 hr 08 min 35 sec)
Heartbeat CPU 0 instructions: 290000001 cycles: 129870051 heartbeat IPC: 2.57 cumulative IPC: 2.045 (Simulation time: 02 hr 13 min 01 sec)
Heartbeat CPU 0 instructions: 300000003 cycles: 133685001 heartbeat IPC: 2.621 cumulative IPC: 2.064 (Simulation time: 02 hr 17 min 28 sec)
Heartbeat CPU 0 instructions: 310000001 cycles: 137795359 heartbeat IPC: 2.433 cumulative IPC: 2.076 (Simulation time: 02 hr 21 min 58 sec)
Heartbeat CPU 0 instructions: 320000003 cycles: 141867205 heartbeat IPC: 2.456 cumulative IPC: 2.088 (Simulation time: 02 hr 26 min 29 sec)
Heartbeat CPU 0 instructions: 330000003 cycles: 146254318 heartbeat IPC: 2.279 cumulative IPC: 2.094 (Simulation time: 02 hr 31 min 11 sec)
Heartbeat CPU 0 instructions: 340000000 cycles: 155977982 heartbeat IPC: 1.028 cumulative IPC: 2.022 (Simulation time: 02 hr 39 min 08 sec)
Heartbeat CPU 0 instructions: 350000000 cycles: 166482918 heartbeat IPC: 0.9519 cumulative IPC: 1.949 (Simulation time: 02 hr 47 min 42 sec)
Heartbeat CPU 0 instructions: 360000004 cycles: 176165266 heartbeat IPC: 1.033 cumulative IPC: 1.895 (Simulation time: 02 hr 55 min 44 sec)
Heartbeat CPU 0 instructions: 370000000 cycles: 179600639 heartbeat IPC: 2.911 cumulative IPC: 1.915 (Simulation time: 02 hr 59 min 54 sec)
Heartbeat CPU 0 instructions: 380000001 cycles: 183011074 heartbeat IPC: 2.932 cumulative IPC: 1.936 (Simulation time: 03 hr 04 min 06 sec)
Heartbeat CPU 0 instructions: 390000004 cycles: 186748418 heartbeat IPC: 2.676 cumulative IPC: 1.952 (Simulation time: 03 hr 08 min 26 sec)
Heartbeat CPU 0 instructions: 400000004 cycles: 190557927 heartbeat IPC: 2.625 cumulative IPC: 1.966 (Simulation time: 03 hr 12 min 50 sec)
Heartbeat CPU 0 instructions: 410000001 cycles: 194205753 heartbeat IPC: 2.741 cumulative IPC: 1.982 (Simulation time: 03 hr 17 min 05 sec)
Heartbeat CPU 0 instructions: 420000003 cycles: 198208856 heartbeat IPC: 2.498 cumulative IPC: 1.993 (Simulation time: 03 hr 21 min 33 sec)
Heartbeat CPU 0 instructions: 430000001 cycles: 201859750 heartbeat IPC: 2.739 cumulative IPC: 2.007 (Simulation time: 03 hr 25 min 53 sec)
Heartbeat CPU 0 instructions: 440000004 cycles: 205940489 heartbeat IPC: 2.451 cumulative IPC: 2.017 (Simulation time: 03 hr 30 min 26 sec)
Heartbeat CPU 0 instructions: 450000002 cycles: 209665580 heartbeat IPC: 2.684 cumulative IPC: 2.029 (Simulation time: 03 hr 34 min 45 sec)
Heartbeat CPU 0 instructions: 460000000 cycles: 213330881 heartbeat IPC: 2.728 cumulative IPC: 2.042 (Simulation time: 03 hr 39 min 03 sec)
Heartbeat CPU 0 instructions: 470000000 cycles: 216786342 heartbeat IPC: 2.894 cumulative IPC: 2.056 (Simulation time: 03 hr 43 min 16 sec)
Heartbeat CPU 0 instructions: 480000003 cycles: 220593969 heartbeat IPC: 2.626 cumulative IPC: 2.067 (Simulation time: 03 hr 47 min 38 sec)
Heartbeat CPU 0 instructions: 490000000 cycles: 224220324 heartbeat IPC: 2.758 cumulative IPC: 2.079 (Simulation time: 03 hr 51 min 55 sec)
Heartbeat CPU 0 instructions: 500000000 cycles: 227910963 heartbeat IPC: 2.71 cumulative IPC: 2.089 (Simulation time: 03 hr 56 min 14 sec)
Heartbeat CPU 0 instructions: 510000003 cycles: 231542185 heartbeat IPC: 2.754 cumulative IPC: 2.1 (Simulation time: 04 hr 00 min 35 sec)
Heartbeat CPU 0 instructions: 520000001 cycles: 234948711 heartbeat IPC: 2.936 cumulative IPC: 2.113 (Simulation time: 04 hr 04 min 50 sec)
Heartbeat CPU 0 instructions: 530000002 cycles: 238601186 heartbeat IPC: 2.738 cumulative IPC: 2.123 (Simulation time: 04 hr 09 min 09 sec)
Heartbeat CPU 0 instructions: 540000000 cycles: 242119630 heartbeat IPC: 2.842 cumulative IPC: 2.134 (Simulation time: 04 hr 13 min 22 sec)
Heartbeat CPU 0 instructions: 550000001 cycles: 245810180 heartbeat IPC: 2.71 cumulative IPC: 2.143 (Simulation time: 04 hr 17 min 46 sec)
Heartbeat CPU 0 instructions: 560000000 cycles: 249757748 heartbeat IPC: 2.533 cumulative IPC: 2.15 (Simulation time: 04 hr 22 min 20 sec)
Heartbeat CPU 0 instructions: 570000004 cycles: 255942778 heartbeat IPC: 1.617 cumulative IPC: 2.136 (Simulation time: 04 hr 28 min 16 sec)
Heartbeat CPU 0 instructions: 580000003 cycles: 266912294 heartbeat IPC: 0.9116 cumulative IPC: 2.084 (Simulation time: 04 hr 37 min 10 sec)
Heartbeat CPU 0 instructions: 590000002 cycles: 279317889 heartbeat IPC: 0.8061 cumulative IPC: 2.024 (Simulation time: 04 hr 47 min 00 sec)
Heartbeat CPU 0 instructions: 600000000 cycles: 283015855 heartbeat IPC: 2.704 cumulative IPC: 2.033 (Simulation time: 04 hr 51 min 22 sec)
Heartbeat CPU 0 instructions: 610000000 cycles: 286871757 heartbeat IPC: 2.593 cumulative IPC: 2.041 (Simulation time: 04 hr 55 min 44 sec)
Heartbeat CPU 0 instructions: 620000001 cycles: 290297800 heartbeat IPC: 2.919 cumulative IPC: 2.052 (Simulation time: 04 hr 59 min 59 sec)
Heartbeat CPU 0 instructions: 630000002 cycles: 294569467 heartbeat IPC: 2.341 cumulative IPC: 2.057 (Simulation time: 05 hr 04 min 37 sec)
Heartbeat CPU 0 instructions: 640000001 cycles: 298462406 heartbeat IPC: 2.569 cumulative IPC: 2.063 (Simulation time: 05 hr 09 min 03 sec)
Heartbeat CPU 0 instructions: 650000000 cycles: 302215759 heartbeat IPC: 2.664 cumulative IPC: 2.071 (Simulation time: 05 hr 13 min 23 sec)
Simulation finished CPU 0 instructions: 600000001 cycles: 289678638 cumulative IPC: 2.071 (Simulation time: 05 hr 13 min 23 sec)
Simulation complete CPU 0 instructions: 600000001 cycles: 289678638 cumulative IPC: 2.071 (Simulation time: 05 hr 13 min 23 sec)

ChampSim completed all CPUs

=== Simulation ===
CPU 0 runs traces/400.perlbench-41B.champsimtrace.xz
Region of Interest Statistics

CPU 0 cumulative IPC: 2.071 instructions: 600000001 cycles: 289678638
CPU 0 Branch Prediction Accuracy: 96.56% MPKI: 7.112 Average ROB Occupancy at Mispredict: 47.35
Branch type MPKI
BRANCH_DIRECT_JUMP: 0.0123
BRANCH_INDIRECT: 0.323
BRANCH_CONDITIONAL: 6.56
BRANCH_DIRECT_CALL: 0.0043
BRANCH_INDIRECT_CALL: 0.2
BRANCH_RETURN: 0.00828

LLC TOTAL        ACCESS:     592344 HIT:     338785 MISS:     253559
LLC LOAD         ACCESS:     402691 HIT:     197227 MISS:     205464
LLC RFO          ACCESS:      32518 HIT:      18770 MISS:      13748
LLC PREFETCH     ACCESS:      53171 HIT:      28204 MISS:      24967
LLC WRITE        ACCESS:      84927 HIT:      84699 MISS:        228
LLC TRANSLATION  ACCESS:      19037 HIT:       9885 MISS:       9152
LLC PREFETCH REQUESTED:      53171 ISSUED:      53171 USEFUL:      15564 USELESS:       6099
LLC AVERAGE MISS LATENCY: 571.5 cycles
cpu0_DTLB TOTAL        ACCESS:  141914521 HIT:  141227531 MISS:     686990
cpu0_DTLB LOAD         ACCESS:  141914521 HIT:  141227531 MISS:     686990
cpu0_DTLB RFO          ACCESS:          0 HIT:          0 MISS:          0
cpu0_DTLB PREFETCH     ACCESS:          0 HIT:          0 MISS:          0
cpu0_DTLB WRITE        ACCESS:          0 HIT:          0 MISS:          0
cpu0_DTLB TRANSLATION  ACCESS:          0 HIT:          0 MISS:          0
cpu0_DTLB PREFETCH REQUESTED:          0 ISSUED:          0 USEFUL:          0 USELESS:          0
cpu0_DTLB AVERAGE MISS LATENCY: 14.08 cycles
cpu0_ITLB TOTAL        ACCESS:    4860311 HIT:    4807200 MISS:      53111
cpu0_ITLB LOAD         ACCESS:    4860311 HIT:    4807200 MISS:      53111
cpu0_ITLB RFO          ACCESS:          0 HIT:          0 MISS:          0
cpu0_ITLB PREFETCH     ACCESS:          0 HIT:          0 MISS:          0
cpu0_ITLB WRITE        ACCESS:          0 HIT:          0 MISS:          0
cpu0_ITLB TRANSLATION  ACCESS:          0 HIT:          0 MISS:          0
cpu0_ITLB PREFETCH REQUESTED:          0 ISSUED:          0 USEFUL:          0 USELESS:          0
cpu0_ITLB AVERAGE MISS LATENCY: 7.753 cycles
cpu0_L1D TOTAL        ACCESS:  188569633 HIT:  186837051 MISS:    1732582
cpu0_L1D LOAD         ACCESS:  105202377 HIT:  103849981 MISS:    1352396
cpu0_L1D RFO          ACCESS:          0 HIT:          0 MISS:          0
cpu0_L1D PREFETCH     ACCESS:          0 HIT:          0 MISS:          0
cpu0_L1D WRITE        ACCESS:   83342793 HIT:   82986004 MISS:     356789
cpu0_L1D TRANSLATION  ACCESS:      24463 HIT:       1066 MISS:      23397
cpu0_L1D PREFETCH REQUESTED:          0 ISSUED:          0 USEFUL:          0 USELESS:          0
cpu0_L1D AVERAGE MISS LATENCY: 79.73 cycles
cpu0_L1I TOTAL        ACCESS:    5598072 HIT:    4854437 MISS:     743635
cpu0_L1I LOAD         ACCESS:    5598072 HIT:    4854437 MISS:     743635
cpu0_L1I RFO          ACCESS:          0 HIT:          0 MISS:          0
cpu0_L1I PREFETCH     ACCESS:          0 HIT:          0 MISS:          0
cpu0_L1I WRITE        ACCESS:          0 HIT:          0 MISS:          0
cpu0_L1I TRANSLATION  ACCESS:          0 HIT:          0 MISS:          0
cpu0_L1I PREFETCH REQUESTED:          0 ISSUED:          0 USEFUL:          0 USELESS:          0
cpu0_L1I AVERAGE MISS LATENCY: 12.83 cycles
cpu0_L2C TOTAL        ACCESS:    1665606 HIT:    1209586 MISS:     456020
cpu0_L2C LOAD         ACCESS:    1315941 HIT:     913250 MISS:     402691
cpu0_L2C RFO          ACCESS:      88352 HIT:      55834 MISS:      32518
cpu0_L2C PREFETCH     ACCESS:          0 HIT:          0 MISS:          0
cpu0_L2C WRITE        ACCESS:     237983 HIT:     236209 MISS:       1774
cpu0_L2C TRANSLATION  ACCESS:      23330 HIT:       4293 MISS:      19037
cpu0_L2C PREFETCH REQUESTED:          0 ISSUED:          0 USEFUL:          0 USELESS:          0
cpu0_L2C AVERAGE MISS LATENCY: 304.6 cycles
cpu0_STLB TOTAL        ACCESS:     507416 HIT:     484622 MISS:      22794
cpu0_STLB LOAD         ACCESS:     507416 HIT:     484622 MISS:      22794
cpu0_STLB RFO          ACCESS:          0 HIT:          0 MISS:          0
cpu0_STLB PREFETCH     ACCESS:          0 HIT:          0 MISS:          0
cpu0_STLB WRITE        ACCESS:          0 HIT:          0 MISS:          0
cpu0_STLB TRANSLATION  ACCESS:          0 HIT:          0 MISS:          0
cpu0_STLB PREFETCH REQUESTED:          0 ISSUED:          0 USEFUL:          0 USELESS:          0
cpu0_STLB AVERAGE MISS LATENCY: 303.4 cycles

DRAM Statistics

Channel 0 RQ ROW_BUFFER_HIT:      46002
  ROW_BUFFER_MISS:     202560
 AVG DBUS CONGESTED CYCLE: 3.813
WQ ROW_BUFFER_HIT: Channel 0 
  ROW_BUFFER_MISS:       7302
  FULL:      27961
