WARNING: physical memory size is smaller than virtual memory size.

*** ChampSim Multicore Out-of-Order Simulator ***
Warmup Instructions: 50000000
Simulation Instructions: 600000000
Number of CPUs: 1
Page size: 4096

CPU 0 Tage branch predictor
Off-chip DRAM Size: 4 GiB Channels: 1 Width: 64-bit Data Race: 3200 MT/s
Heartbeat CPU 0 instructions: 10000000 cycles: 2500061 heartbeat IPC: 4 cumulative IPC: 4 (Simulation time: 00 hr 00 min 58 sec)
Heartbeat CPU 0 instructions: 20000000 cycles: 5000061 heartbeat IPC: 4 cumulative IPC: 4 (Simulation time: 00 hr 01 min 54 sec)
Heartbeat CPU 0 instructions: 30000000 cycles: 7500061 heartbeat IPC: 4 cumulative IPC: 4 (Simulation time: 00 hr 02 min 53 sec)
Heartbeat CPU 0 instructions: 40000000 cycles: 10000061 heartbeat IPC: 4 cumulative IPC: 4 (Simulation time: 00 hr 03 min 49 sec)
Heartbeat CPU 0 instructions: 50000000 cycles: 12500061 heartbeat IPC: 4 cumulative IPC: 4 (Simulation time: 00 hr 04 min 43 sec)
Warmup finished CPU 0 instructions: 50000000 cycles: 12500062 cumulative IPC: 4 (Simulation time: 00 hr 04 min 43 sec)
Warmup complete CPU 0 instructions: 50000000 cycles: 12500062 cumulative IPC: 4 (Simulation time: 00 hr 04 min 43 sec)
Heartbeat CPU 0 instructions: 60000004 cycles: 15504489 heartbeat IPC: 3.328 cumulative IPC: 3.328 (Simulation time: 00 hr 05 min 47 sec)
Heartbeat CPU 0 instructions: 70000003 cycles: 18370762 heartbeat IPC: 3.489 cumulative IPC: 3.407 (Simulation time: 00 hr 06 min 56 sec)
Heartbeat CPU 0 instructions: 80000002 cycles: 21382300 heartbeat IPC: 3.321 cumulative IPC: 3.378 (Simulation time: 00 hr 08 min 05 sec)
Heartbeat CPU 0 instructions: 90000000 cycles: 24100329 heartbeat IPC: 3.679 cumulative IPC: 3.448 (Simulation time: 00 hr 09 min 06 sec)
Heartbeat CPU 0 instructions: 100000003 cycles: 26857493 heartbeat IPC: 3.627 cumulative IPC: 3.483 (Simulation time: 00 hr 10 min 06 sec)
Heartbeat CPU 0 instructions: 110000001 cycles: 29755202 heartbeat IPC: 3.451 cumulative IPC: 3.477 (Simulation time: 00 hr 11 min 04 sec)
Heartbeat CPU 0 instructions: 120000001 cycles: 32471687 heartbeat IPC: 3.681 cumulative IPC: 3.505 (Simulation time: 00 hr 12 min 01 sec)
Heartbeat CPU 0 instructions: 130000003 cycles: 35371153 heartbeat IPC: 3.449 cumulative IPC: 3.498 (Simulation time: 00 hr 12 min 56 sec)
Heartbeat CPU 0 instructions: 140000002 cycles: 38204957 heartbeat IPC: 3.529 cumulative IPC: 3.501 (Simulation time: 00 hr 13 min 51 sec)
Heartbeat CPU 0 instructions: 150000001 cycles: 40975005 heartbeat IPC: 3.61 cumulative IPC: 3.512 (Simulation time: 00 hr 14 min 45 sec)
Heartbeat CPU 0 instructions: 160000000 cycles: 43892634 heartbeat IPC: 3.427 cumulative IPC: 3.504 (Simulation time: 00 hr 15 min 41 sec)
Heartbeat CPU 0 instructions: 170000001 cycles: 46821114 heartbeat IPC: 3.415 cumulative IPC: 3.496 (Simulation time: 00 hr 16 min 37 sec)
Heartbeat CPU 0 instructions: 180000000 cycles: 49612148 heartbeat IPC: 3.583 cumulative IPC: 3.503 (Simulation time: 00 hr 17 min 33 sec)
Heartbeat CPU 0 instructions: 190000002 cycles: 52319155 heartbeat IPC: 3.694 cumulative IPC: 3.516 (Simulation time: 00 hr 18 min 29 sec)
Heartbeat CPU 0 instructions: 200000002 cycles: 55139904 heartbeat IPC: 3.545 cumulative IPC: 3.518 (Simulation time: 00 hr 19 min 25 sec)
Heartbeat CPU 0 instructions: 210000000 cycles: 58032602 heartbeat IPC: 3.457 cumulative IPC: 3.514 (Simulation time: 00 hr 20 min 21 sec)
Heartbeat CPU 0 instructions: 220000001 cycles: 60784611 heartbeat IPC: 3.634 cumulative IPC: 3.521 (Simulation time: 00 hr 21 min 16 sec)
Heartbeat CPU 0 instructions: 230000002 cycles: 63673784 heartbeat IPC: 3.461 cumulative IPC: 3.517 (Simulation time: 00 hr 22 min 11 sec)
Heartbeat CPU 0 instructions: 240000004 cycles: 66624801 heartbeat IPC: 3.389 cumulative IPC: 3.51 (Simulation time: 00 hr 23 min 08 sec)
Heartbeat CPU 0 instructions: 250000003 cycles: 69515661 heartbeat IPC: 3.459 cumulative IPC: 3.508 (Simulation time: 00 hr 24 min 04 sec)
Heartbeat CPU 0 instructions: 260000001 cycles: 72300103 heartbeat IPC: 3.591 cumulative IPC: 3.512 (Simulation time: 00 hr 24 min 59 sec)
Heartbeat CPU 0 instructions: 270000002 cycles: 78059363 heartbeat IPC: 1.736 cumulative IPC: 3.356 (Simulation time: 00 hr 26 min 16 sec)
Heartbeat CPU 0 instructions: 280000000 cycles: 86637523 heartbeat IPC: 1.166 cumulative IPC: 3.102 (Simulation time: 00 hr 27 min 55 sec)
Heartbeat CPU 0 instructions: 290000000 cycles: 93823323 heartbeat IPC: 1.392 cumulative IPC: 2.951 (Simulation time: 00 hr 29 min 24 sec)
Heartbeat CPU 0 instructions: 300000003 cycles: 98871529 heartbeat IPC: 1.981 cumulative IPC: 2.894 (Simulation time: 00 hr 30 min 41 sec)
Heartbeat CPU 0 instructions: 310000001 cycles: 106238080 heartbeat IPC: 1.357 cumulative IPC: 2.774 (Simulation time: 00 hr 32 min 14 sec)
Heartbeat CPU 0 instructions: 320000004 cycles: 109898637 heartbeat IPC: 2.732 cumulative IPC: 2.772 (Simulation time: 00 hr 33 min 18 sec)
Heartbeat CPU 0 instructions: 330000000 cycles: 113046590 heartbeat IPC: 3.177 cumulative IPC: 2.785 (Simulation time: 00 hr 34 min 17 sec)
Heartbeat CPU 0 instructions: 340000001 cycles: 116182505 heartbeat IPC: 3.189 cumulative IPC: 2.797 (Simulation time: 00 hr 35 min 16 sec)
Heartbeat CPU 0 instructions: 350000000 cycles: 119495638 heartbeat IPC: 3.018 cumulative IPC: 2.804 (Simulation time: 00 hr 36 min 16 sec)
Heartbeat CPU 0 instructions: 360000004 cycles: 122609189 heartbeat IPC: 3.212 cumulative IPC: 2.815 (Simulation time: 00 hr 37 min 15 sec)
Heartbeat CPU 0 instructions: 370000001 cycles: 125680179 heartbeat IPC: 3.256 cumulative IPC: 2.827 (Simulation time: 00 hr 38 min 14 sec)
Heartbeat CPU 0 instructions: 380000004 cycles: 128760292 heartbeat IPC: 3.247 cumulative IPC: 2.838 (Simulation time: 00 hr 39 min 13 sec)
Heartbeat CPU 0 instructions: 390000002 cycles: 131957216 heartbeat IPC: 3.128 cumulative IPC: 2.846 (Simulation time: 00 hr 40 min 12 sec)
Heartbeat CPU 0 instructions: 400000000 cycles: 135212119 heartbeat IPC: 3.072 cumulative IPC: 2.852 (Simulation time: 00 hr 41 min 12 sec)
Heartbeat CPU 0 instructions: 410000000 cycles: 140633315 heartbeat IPC: 1.845 cumulative IPC: 2.81 (Simulation time: 00 hr 42 min 28 sec)
Heartbeat CPU 0 instructions: 420000003 cycles: 148381236 heartbeat IPC: 1.291 cumulative IPC: 2.723 (Simulation time: 00 hr 44 min 03 sec)
Heartbeat CPU 0 instructions: 430000000 cycles: 152892453 heartbeat IPC: 2.217 cumulative IPC: 2.707 (Simulation time: 00 hr 45 min 17 sec)
Heartbeat CPU 0 instructions: 440000004 cycles: 157247793 heartbeat IPC: 2.296 cumulative IPC: 2.694 (Simulation time: 00 hr 46 min 29 sec)
Heartbeat CPU 0 instructions: 450000001 cycles: 161692129 heartbeat IPC: 2.25 cumulative IPC: 2.681 (Simulation time: 00 hr 47 min 40 sec)
Heartbeat CPU 0 instructions: 460000002 cycles: 168427263 heartbeat IPC: 1.485 cumulative IPC: 2.629 (Simulation time: 00 hr 49 min 08 sec)
Heartbeat CPU 0 instructions: 470000003 cycles: 175033162 heartbeat IPC: 1.514 cumulative IPC: 2.584 (Simulation time: 00 hr 50 min 35 sec)
Heartbeat CPU 0 instructions: 480000000 cycles: 178364202 heartbeat IPC: 3.002 cumulative IPC: 2.592 (Simulation time: 00 hr 51 min 35 sec)
Heartbeat CPU 0 instructions: 490000001 cycles: 181945129 heartbeat IPC: 2.793 cumulative IPC: 2.597 (Simulation time: 00 hr 52 min 37 sec)
Heartbeat CPU 0 instructions: 500000002 cycles: 185358227 heartbeat IPC: 2.93 cumulative IPC: 2.603 (Simulation time: 00 hr 53 min 38 sec)
Heartbeat CPU 0 instructions: 510000000 cycles: 188767158 heartbeat IPC: 2.933 cumulative IPC: 2.61 (Simulation time: 00 hr 54 min 40 sec)
Heartbeat CPU 0 instructions: 520000000 cycles: 192201845 heartbeat IPC: 2.911 cumulative IPC: 2.615 (Simulation time: 00 hr 55 min 41 sec)
Heartbeat CPU 0 instructions: 530000001 cycles: 199484117 heartbeat IPC: 1.373 cumulative IPC: 2.567 (Simulation time: 00 hr 57 min 11 sec)
Heartbeat CPU 0 instructions: 540000000 cycles: 206316385 heartbeat IPC: 1.464 cumulative IPC: 2.528 (Simulation time: 00 hr 58 min 40 sec)
Heartbeat CPU 0 instructions: 550000004 cycles: 214979953 heartbeat IPC: 1.154 cumulative IPC: 2.469 (Simulation time: 01 hr 00 min 22 sec)
Heartbeat CPU 0 instructions: 560000004 cycles: 218382841 heartbeat IPC: 2.939 cumulative IPC: 2.477 (Simulation time: 01 hr 01 min 20 sec)
Heartbeat CPU 0 instructions: 570000002 cycles: 221200027 heartbeat IPC: 3.55 cumulative IPC: 2.492 (Simulation time: 01 hr 02 min 15 sec)
Heartbeat CPU 0 instructions: 580000000 cycles: 224113781 heartbeat IPC: 3.432 cumulative IPC: 2.505 (Simulation time: 01 hr 03 min 10 sec)
Heartbeat CPU 0 instructions: 590000001 cycles: 227035609 heartbeat IPC: 3.423 cumulative IPC: 2.517 (Simulation time: 01 hr 04 min 04 sec)
Heartbeat CPU 0 instructions: 600000003 cycles: 229726689 heartbeat IPC: 3.716 cumulative IPC: 2.532 (Simulation time: 01 hr 04 min 58 sec)
Heartbeat CPU 0 instructions: 610000001 cycles: 232588526 heartbeat IPC: 3.494 cumulative IPC: 2.544 (Simulation time: 01 hr 05 min 49 sec)
Heartbeat CPU 0 instructions: 620000004 cycles: 235539751 heartbeat IPC: 3.388 cumulative IPC: 2.556 (Simulation time: 01 hr 06 min 38 sec)
Heartbeat CPU 0 instructions: 630000002 cycles: 238349111 heartbeat IPC: 3.56 cumulative IPC: 2.568 (Simulation time: 01 hr 07 min 26 sec)
Heartbeat CPU 0 instructions: 640000004 cycles: 241391556 heartbeat IPC: 3.287 cumulative IPC: 2.578 (Simulation time: 01 hr 08 min 12 sec)
Heartbeat CPU 0 instructions: 650000001 cycles: 244101979 heartbeat IPC: 3.689 cumulative IPC: 2.591 (Simulation time: 01 hr 08 min 53 sec)
Simulation finished CPU 0 instructions: 600000001 cycles: 231601918 cumulative IPC: 2.591 (Simulation time: 01 hr 08 min 53 sec)
Simulation complete CPU 0 instructions: 600000001 cycles: 231601918 cumulative IPC: 2.591 (Simulation time: 01 hr 08 min 53 sec)

ChampSim completed all CPUs

=== Simulation ===
CPU 0 runs traces/400.perlbench-50B.champsimtrace.xz
Region of Interest Statistics

CPU 0 cumulative IPC: 2.591 instructions: 600000001 cycles: 231601918
CPU 0 Branch Prediction Accuracy: 99.01% MPKI: 2.04 Average ROB Occupancy at Mispredict: 94.33
Branch type MPKI
BRANCH_DIRECT_JUMP: 0.0176
BRANCH_INDIRECT: 0.38
BRANCH_CONDITIONAL: 1.19
BRANCH_DIRECT_CALL: 0.0067
BRANCH_INDIRECT_CALL: 0.431
BRANCH_RETURN: 0.0161

LLC TOTAL        ACCESS:     771453 HIT:     523042 MISS:     248411
LLC LOAD         ACCESS:     575829 HIT:     352744 MISS:     223085
LLC RFO          ACCESS:      47020 HIT:      31880 MISS:      15140
LLC PREFETCH     ACCESS:          0 HIT:          0 MISS:          0
LLC WRITE        ACCESS:     126469 HIT:     126428 MISS:         41
LLC TRANSLATION  ACCESS:      22135 HIT:      11990 MISS:      10145
LLC PREFETCH REQUESTED:          0 ISSUED:          0 USEFUL:          0 USELESS:          0
LLC AVERAGE MISS LATENCY: 576.1 cycles
cpu0_DTLB TOTAL        ACCESS:  133240875 HIT:  131886528 MISS:    1354347
cpu0_DTLB LOAD         ACCESS:  133240875 HIT:  131886528 MISS:    1354347
cpu0_DTLB RFO          ACCESS:          0 HIT:          0 MISS:          0
cpu0_DTLB PREFETCH     ACCESS:          0 HIT:          0 MISS:          0
cpu0_DTLB WRITE        ACCESS:          0 HIT:          0 MISS:          0
cpu0_DTLB TRANSLATION  ACCESS:          0 HIT:          0 MISS:          0
cpu0_DTLB PREFETCH REQUESTED:          0 ISSUED:          0 USEFUL:          0 USELESS:          0
cpu0_DTLB AVERAGE MISS LATENCY: 10.55 cycles
cpu0_ITLB TOTAL        ACCESS:    8998413 HIT:    8788975 MISS:     209438
cpu0_ITLB LOAD         ACCESS:    8998413 HIT:    8788975 MISS:     209438
cpu0_ITLB RFO          ACCESS:          0 HIT:          0 MISS:          0
cpu0_ITLB PREFETCH     ACCESS:          0 HIT:          0 MISS:          0
cpu0_ITLB WRITE        ACCESS:          0 HIT:          0 MISS:          0
cpu0_ITLB TRANSLATION  ACCESS:          0 HIT:          0 MISS:          0
cpu0_ITLB PREFETCH REQUESTED:          0 ISSUED:          0 USEFUL:          0 USELESS:          0
cpu0_ITLB AVERAGE MISS LATENCY: 2.517 cycles
cpu0_L1D TOTAL        ACCESS:  178275811 HIT:  174488623 MISS:    3787188
cpu0_L1D LOAD         ACCESS:   92756699 HIT:   89649258 MISS:    3107441
cpu0_L1D RFO          ACCESS:          0 HIT:          0 MISS:          0
cpu0_L1D PREFETCH     ACCESS:          0 HIT:          0 MISS:          0
cpu0_L1D WRITE        ACCESS:   85490585 HIT:   84837945 MISS:     652640
cpu0_L1D TRANSLATION  ACCESS:      28527 HIT:       1420 MISS:      27107
cpu0_L1D PREFETCH REQUESTED:          0 ISSUED:          0 USEFUL:          0 USELESS:          0
cpu0_L1D AVERAGE MISS LATENCY: 41.6 cycles
cpu0_L1I TOTAL        ACCESS:   10517835 HIT:    8618620 MISS:    1899215
cpu0_L1I LOAD         ACCESS:   10517835 HIT:    8618620 MISS:    1899215
cpu0_L1I RFO          ACCESS:          0 HIT:          0 MISS:          0
cpu0_L1I PREFETCH     ACCESS:          0 HIT:          0 MISS:          0
cpu0_L1I WRITE        ACCESS:          0 HIT:          0 MISS:          0
cpu0_L1I TRANSLATION  ACCESS:          0 HIT:          0 MISS:          0
cpu0_L1I PREFETCH REQUESTED:          0 ISSUED:          0 USEFUL:          0 USELESS:          0
cpu0_L1I AVERAGE MISS LATENCY: 8.846 cycles
cpu0_L2C TOTAL        ACCESS:    3840422 HIT:    3192265 MISS:     648157
cpu0_L2C LOAD         ACCESS:    3103787 HIT:    2527958 MISS:     575829
cpu0_L2C RFO          ACCESS:     194878 HIT:     147858 MISS:      47020
cpu0_L2C PREFETCH     ACCESS:          0 HIT:          0 MISS:          0
cpu0_L2C WRITE        ACCESS:     514720 HIT:     511547 MISS:       3173
cpu0_L2C TRANSLATION  ACCESS:      27037 HIT:       4902 MISS:      22135
cpu0_L2C PREFETCH REQUESTED:          0 ISSUED:          0 USEFUL:          0 USELESS:          0
cpu0_L2C AVERAGE MISS LATENCY: 241.1 cycles
cpu0_STLB TOTAL        ACCESS:    1009761 HIT:     983071 MISS:      26690
cpu0_STLB LOAD         ACCESS:    1009761 HIT:     983071 MISS:      26690
cpu0_STLB RFO          ACCESS:          0 HIT:          0 MISS:          0
cpu0_STLB PREFETCH     ACCESS:          0 HIT:          0 MISS:          0
cpu0_STLB WRITE        ACCESS:          0 HIT:          0 MISS:          0
cpu0_STLB TRANSLATION  ACCESS:          0 HIT:          0 MISS:          0
cpu0_STLB PREFETCH REQUESTED:          0 ISSUED:          0 USEFUL:          0 USELESS:          0
cpu0_STLB AVERAGE MISS LATENCY: 325.9 cycles

DRAM Statistics

Channel 0 RQ ROW_BUFFER_HIT:      60481
  ROW_BUFFER_MISS:     187887
 AVG DBUS CONGESTED CYCLE: 3.798
WQ ROW_BUFFER_HIT: Channel 0 
  ROW_BUFFER_MISS:       4642
  FULL:      20168
