WARNING: physical memory size is smaller than virtual memory size.

*** ChampSim Multicore Out-of-Order Simulator ***
Warmup Instructions: 50000000
Simulation Instructions: 600000000
Number of CPUs: 1
Page size: 4096

Off-chip DRAM Size: 4 GiB Channels: 1 Width: 64-bit Data Race: 3200 MT/s
Heartbeat CPU 0 instructions: 10000001 cycles: 2500318 heartbeat IPC: 3.999 cumulative IPC: 3.999 (Simulation time: 00 hr 00 min 34 sec)
Heartbeat CPU 0 instructions: 20000002 cycles: 5037114 heartbeat IPC: 3.942 cumulative IPC: 3.971 (Simulation time: 00 hr 01 min 26 sec)
Heartbeat CPU 0 instructions: 30000002 cycles: 7537114 heartbeat IPC: 4 cumulative IPC: 3.98 (Simulation time: 00 hr 02 min 32 sec)
Heartbeat CPU 0 instructions: 40000002 cycles: 10037114 heartbeat IPC: 4 cumulative IPC: 3.985 (Simulation time: 00 hr 04 min 02 sec)
Heartbeat CPU 0 instructions: 50000002 cycles: 12537114 heartbeat IPC: 4 cumulative IPC: 3.988 (Simulation time: 00 hr 06 min 01 sec)
Warmup finished CPU 0 instructions: 50000002 cycles: 12537115 cumulative IPC: 3.988 (Simulation time: 00 hr 06 min 01 sec)
Warmup complete CPU 0 instructions: 50000002 cycles: 12537115 cumulative IPC: 3.988 (Simulation time: 00 hr 06 min 01 sec)
Heartbeat CPU 0 instructions: 60000000 cycles: 17699804 heartbeat IPC: 1.937 cumulative IPC: 1.937 (Simulation time: 00 hr 10 min 21 sec)
Heartbeat CPU 0 instructions: 70000002 cycles: 22590610 heartbeat IPC: 2.045 cumulative IPC: 1.989 (Simulation time: 00 hr 15 min 48 sec)
Heartbeat CPU 0 instructions: 80000001 cycles: 27946881 heartbeat IPC: 1.867 cumulative IPC: 1.947 (Simulation time: 00 hr 21 min 24 sec)
Heartbeat CPU 0 instructions: 90000001 cycles: 32810040 heartbeat IPC: 2.056 cumulative IPC: 1.973 (Simulation time: 00 hr 26 min 43 sec)
Heartbeat CPU 0 instructions: 100000000 cycles: 37916371 heartbeat IPC: 1.958 cumulative IPC: 1.97 (Simulation time: 00 hr 32 min 04 sec)
Heartbeat CPU 0 instructions: 110000000 cycles: 42793233 heartbeat IPC: 2.05 cumulative IPC: 1.983 (Simulation time: 00 hr 37 min 18 sec)
Heartbeat CPU 0 instructions: 120000001 cycles: 47983893 heartbeat IPC: 1.927 cumulative IPC: 1.975 (Simulation time: 00 hr 42 min 40 sec)
Heartbeat CPU 0 instructions: 130000001 cycles: 53137323 heartbeat IPC: 1.94 cumulative IPC: 1.97 (Simulation time: 00 hr 48 min 06 sec)
Heartbeat CPU 0 instructions: 140000001 cycles: 58443815 heartbeat IPC: 1.884 cumulative IPC: 1.96 (Simulation time: 00 hr 53 min 35 sec)
Heartbeat CPU 0 instructions: 150000001 cycles: 63760772 heartbeat IPC: 1.881 cumulative IPC: 1.952 (Simulation time: 00 hr 59 min 02 sec)
Heartbeat CPU 0 instructions: 160000004 cycles: 68966029 heartbeat IPC: 1.921 cumulative IPC: 1.949 (Simulation time: 01 hr 04 min 26 sec)
Heartbeat CPU 0 instructions: 170000000 cycles: 77538964 heartbeat IPC: 1.166 cumulative IPC: 1.846 (Simulation time: 01 hr 12 min 09 sec)
Heartbeat CPU 0 instructions: 180000004 cycles: 86296315 heartbeat IPC: 1.142 cumulative IPC: 1.762 (Simulation time: 01 hr 20 min 10 sec)
Heartbeat CPU 0 instructions: 190000001 cycles: 96019310 heartbeat IPC: 1.028 cumulative IPC: 1.677 (Simulation time: 01 hr 28 min 38 sec)
Heartbeat CPU 0 instructions: 200000003 cycles: 100746859 heartbeat IPC: 2.115 cumulative IPC: 1.7 (Simulation time: 01 hr 33 min 46 sec)
Heartbeat CPU 0 instructions: 210000001 cycles: 105644390 heartbeat IPC: 2.042 cumulative IPC: 1.718 (Simulation time: 01 hr 39 min 05 sec)
Heartbeat CPU 0 instructions: 220000000 cycles: 110457984 heartbeat IPC: 2.077 cumulative IPC: 1.736 (Simulation time: 01 hr 44 min 18 sec)
Heartbeat CPU 0 instructions: 230000002 cycles: 115730086 heartbeat IPC: 1.897 cumulative IPC: 1.744 (Simulation time: 01 hr 49 min 41 sec)
Heartbeat CPU 0 instructions: 240000000 cycles: 120542326 heartbeat IPC: 2.078 cumulative IPC: 1.759 (Simulation time: 01 hr 54 min 54 sec)
Heartbeat CPU 0 instructions: 250000000 cycles: 125659785 heartbeat IPC: 1.954 cumulative IPC: 1.768 (Simulation time: 02 hr 00 min 19 sec)
Heartbeat CPU 0 instructions: 260000000 cycles: 130643097 heartbeat IPC: 2.007 cumulative IPC: 1.778 (Simulation time: 02 hr 05 min 36 sec)
Heartbeat CPU 0 instructions: 270000002 cycles: 135505795 heartbeat IPC: 2.056 cumulative IPC: 1.789 (Simulation time: 02 hr 10 min 51 sec)
Heartbeat CPU 0 instructions: 280000002 cycles: 140390512 heartbeat IPC: 2.047 cumulative IPC: 1.799 (Simulation time: 02 hr 16 min 03 sec)
Heartbeat CPU 0 instructions: 290000001 cycles: 145743276 heartbeat IPC: 1.868 cumulative IPC: 1.802 (Simulation time: 02 hr 21 min 35 sec)
Heartbeat CPU 0 instructions: 300000003 cycles: 150768959 heartbeat IPC: 1.99 cumulative IPC: 1.809 (Simulation time: 02 hr 26 min 59 sec)
Heartbeat CPU 0 instructions: 310000001 cycles: 156024822 heartbeat IPC: 1.903 cumulative IPC: 1.812 (Simulation time: 02 hr 32 min 38 sec)
Heartbeat CPU 0 instructions: 320000003 cycles: 161211154 heartbeat IPC: 1.928 cumulative IPC: 1.816 (Simulation time: 02 hr 37 min 59 sec)
Heartbeat CPU 0 instructions: 330000003 cycles: 166479201 heartbeat IPC: 1.898 cumulative IPC: 1.819 (Simulation time: 02 hr 43 min 24 sec)
Heartbeat CPU 0 instructions: 340000000 cycles: 175725553 heartbeat IPC: 1.082 cumulative IPC: 1.777 (Simulation time: 02 hr 51 min 29 sec)
Heartbeat CPU 0 instructions: 350000000 cycles: 185689724 heartbeat IPC: 1.004 cumulative IPC: 1.733 (Simulation time: 03 hr 00 min 18 sec)
Heartbeat CPU 0 instructions: 360000004 cycles: 195221416 heartbeat IPC: 1.049 cumulative IPC: 1.697 (Simulation time: 03 hr 08 min 40 sec)
Heartbeat CPU 0 instructions: 370000000 cycles: 199588420 heartbeat IPC: 2.29 cumulative IPC: 1.711 (Simulation time: 03 hr 13 min 36 sec)
Heartbeat CPU 0 instructions: 380000001 cycles: 204477212 heartbeat IPC: 2.045 cumulative IPC: 1.719 (Simulation time: 03 hr 18 min 55 sec)
Heartbeat CPU 0 instructions: 390000002 cycles: 209277831 heartbeat IPC: 2.083 cumulative IPC: 1.728 (Simulation time: 03 hr 24 min 08 sec)
Heartbeat CPU 0 instructions: 400000004 cycles: 214196761 heartbeat IPC: 2.033 cumulative IPC: 1.736 (Simulation time: 03 hr 29 min 22 sec)
Heartbeat CPU 0 instructions: 410000000 cycles: 218884533 heartbeat IPC: 2.133 cumulative IPC: 1.745 (Simulation time: 03 hr 34 min 27 sec)
Heartbeat CPU 0 instructions: 420000000 cycles: 223938328 heartbeat IPC: 1.979 cumulative IPC: 1.75 (Simulation time: 03 hr 39 min 44 sec)
Heartbeat CPU 0 instructions: 430000001 cycles: 228372349 heartbeat IPC: 2.255 cumulative IPC: 1.761 (Simulation time: 03 hr 44 min 46 sec)
Heartbeat CPU 0 instructions: 440000000 cycles: 233687895 heartbeat IPC: 1.881 cumulative IPC: 1.764 (Simulation time: 03 hr 50 min 16 sec)
Heartbeat CPU 0 instructions: 450000002 cycles: 238323227 heartbeat IPC: 2.157 cumulative IPC: 1.772 (Simulation time: 03 hr 55 min 20 sec)
Heartbeat CPU 0 instructions: 460000000 cycles: 243077358 heartbeat IPC: 2.103 cumulative IPC: 1.778 (Simulation time: 04 hr 00 min 26 sec)
Heartbeat CPU 0 instructions: 470000000 cycles: 248028399 heartbeat IPC: 2.02 cumulative IPC: 1.784 (Simulation time: 04 hr 05 min 41 sec)
Heartbeat CPU 0 instructions: 480000003 cycles: 252771815 heartbeat IPC: 2.108 cumulative IPC: 1.79 (Simulation time: 04 hr 10 min 51 sec)
Heartbeat CPU 0 instructions: 490000000 cycles: 257360639 heartbeat IPC: 2.179 cumulative IPC: 1.797 (Simulation time: 04 hr 15 min 52 sec)
Heartbeat CPU 0 instructions: 500000000 cycles: 262362521 heartbeat IPC: 1.999 cumulative IPC: 1.801 (Simulation time: 04 hr 21 min 11 sec)
Heartbeat CPU 0 instructions: 510000003 cycles: 267949167 heartbeat IPC: 1.79 cumulative IPC: 1.801 (Simulation time: 04 hr 26 min 51 sec)
Heartbeat CPU 0 instructions: 520000001 cycles: 272606021 heartbeat IPC: 2.147 cumulative IPC: 1.807 (Simulation time: 04 hr 32 min 02 sec)
Heartbeat CPU 0 instructions: 530000002 cycles: 277708928 heartbeat IPC: 1.96 cumulative IPC: 1.81 (Simulation time: 04 hr 37 min 22 sec)
Heartbeat CPU 0 instructions: 540000000 cycles: 282798439 heartbeat IPC: 1.965 cumulative IPC: 1.813 (Simulation time: 04 hr 42 min 46 sec)
Heartbeat CPU 0 instructions: 550000001 cycles: 287582958 heartbeat IPC: 2.09 cumulative IPC: 1.818 (Simulation time: 04 hr 47 min 58 sec)
Heartbeat CPU 0 instructions: 560000000 cycles: 292759522 heartbeat IPC: 1.932 cumulative IPC: 1.82 (Simulation time: 04 hr 53 min 19 sec)
Heartbeat CPU 0 instructions: 570000004 cycles: 299357668 heartbeat IPC: 1.516 cumulative IPC: 1.813 (Simulation time: 04 hr 59 min 48 sec)
Heartbeat CPU 0 instructions: 580000003 cycles: 309770655 heartbeat IPC: 0.9603 cumulative IPC: 1.783 (Simulation time: 05 hr 08 min 53 sec)
Heartbeat CPU 0 instructions: 590000002 cycles: 321378776 heartbeat IPC: 0.8615 cumulative IPC: 1.748 (Simulation time: 05 hr 18 min 39 sec)
Heartbeat CPU 0 instructions: 600000000 cycles: 325884251 heartbeat IPC: 2.22 cumulative IPC: 1.755 (Simulation time: 05 hr 23 min 52 sec)
Heartbeat CPU 0 instructions: 610000002 cycles: 330344606 heartbeat IPC: 2.242 cumulative IPC: 1.762 (Simulation time: 05 hr 28 min 52 sec)
Heartbeat CPU 0 instructions: 620000000 cycles: 335132733 heartbeat IPC: 2.088 cumulative IPC: 1.767 (Simulation time: 05 hr 34 min 13 sec)
Heartbeat CPU 0 instructions: 630000002 cycles: 340190497 heartbeat IPC: 1.977 cumulative IPC: 1.77 (Simulation time: 05 hr 39 min 52 sec)
Heartbeat CPU 0 instructions: 640000001 cycles: 345032275 heartbeat IPC: 2.065 cumulative IPC: 1.774 (Simulation time: 05 hr 45 min 15 sec)
Heartbeat CPU 0 instructions: 650000000 cycles: 349576518 heartbeat IPC: 2.201 cumulative IPC: 1.78 (Simulation time: 05 hr 50 min 32 sec)
Simulation finished CPU 0 instructions: 600000001 cycles: 337039405 cumulative IPC: 1.78 (Simulation time: 05 hr 50 min 32 sec)
Simulation complete CPU 0 instructions: 600000001 cycles: 337039405 cumulative IPC: 1.78 (Simulation time: 05 hr 50 min 32 sec)

ChampSim completed all CPUs

=== Simulation ===
CPU 0 runs traces/400.perlbench-41B.champsimtrace.xz
Region of Interest Statistics

CPU 0 cumulative IPC: 1.78 instructions: 600000001 cycles: 337039405
CPU 0 Branch Prediction Accuracy: 93.95% MPKI: 12.5 Average ROB Occupancy at Mispredict: 29.47
Branch type MPKI
BRANCH_DIRECT_JUMP: 0.0123
BRANCH_INDIRECT: 0.323
BRANCH_CONDITIONAL: 12
BRANCH_DIRECT_CALL: 0.0043
BRANCH_INDIRECT_CALL: 0.2
BRANCH_RETURN: 0.00828

LLC TOTAL        ACCESS:     940145 HIT:     608598 MISS:     331547
LLC LOAD         ACCESS:     401350 HIT:     252947 MISS:     148403
LLC RFO          ACCESS:      32852 HIT:      21433 MISS:      11419
LLC PREFETCH     ACCESS:     401350 HIT:     239758 MISS:     161592
LLC WRITE        ACCESS:      85554 HIT:      84579 MISS:        975
LLC TRANSLATION  ACCESS:      19039 HIT:       9881 MISS:       9158
LLC PREFETCH REQUESTED:     401350 ISSUED:     401350 USEFUL:      44525 USELESS:      75368
LLC AVERAGE MISS LATENCY: 548.2 cycles
cpu0_DTLB TOTAL        ACCESS:  153687723 HIT:  153010603 MISS:     677120
cpu0_DTLB LOAD         ACCESS:  153687723 HIT:  153010603 MISS:     677120
cpu0_DTLB RFO          ACCESS:          0 HIT:          0 MISS:          0
cpu0_DTLB PREFETCH     ACCESS:          0 HIT:          0 MISS:          0
cpu0_DTLB WRITE        ACCESS:          0 HIT:          0 MISS:          0
cpu0_DTLB TRANSLATION  ACCESS:          0 HIT:          0 MISS:          0
cpu0_DTLB PREFETCH REQUESTED:          0 ISSUED:          0 USEFUL:          0 USELESS:          0
cpu0_DTLB AVERAGE MISS LATENCY: 14.98 cycles
cpu0_ITLB TOTAL        ACCESS:    4836443 HIT:    4778550 MISS:      57893
cpu0_ITLB LOAD         ACCESS:    4836443 HIT:    4778550 MISS:      57893
cpu0_ITLB RFO          ACCESS:          0 HIT:          0 MISS:          0
cpu0_ITLB PREFETCH     ACCESS:          0 HIT:          0 MISS:          0
cpu0_ITLB WRITE        ACCESS:          0 HIT:          0 MISS:          0
cpu0_ITLB TRANSLATION  ACCESS:          0 HIT:          0 MISS:          0
cpu0_ITLB PREFETCH REQUESTED:          0 ISSUED:          0 USEFUL:          0 USELESS:          0
cpu0_ITLB AVERAGE MISS LATENCY: 7.093 cycles
cpu0_L1D TOTAL        ACCESS:  200307039 HIT:  198589474 MISS:    1717565
cpu0_L1D LOAD         ACCESS:  117064581 HIT:  115726307 MISS:    1338274
cpu0_L1D RFO          ACCESS:          0 HIT:          0 MISS:          0
cpu0_L1D PREFETCH     ACCESS:          0 HIT:          0 MISS:          0
cpu0_L1D WRITE        ACCESS:   83218000 HIT:   82862128 MISS:     355872
cpu0_L1D TRANSLATION  ACCESS:      24458 HIT:       1039 MISS:      23419
cpu0_L1D PREFETCH REQUESTED:          0 ISSUED:          0 USEFUL:          0 USELESS:          0
cpu0_L1D AVERAGE MISS LATENCY: 65.69 cycles
cpu0_L1I TOTAL        ACCESS:    5578912 HIT:    4817402 MISS:     761510
cpu0_L1I LOAD         ACCESS:    5578912 HIT:    4817402 MISS:     761510
cpu0_L1I RFO          ACCESS:          0 HIT:          0 MISS:          0
cpu0_L1I PREFETCH     ACCESS:          0 HIT:          0 MISS:          0
cpu0_L1I WRITE        ACCESS:          0 HIT:          0 MISS:          0
cpu0_L1I TRANSLATION  ACCESS:          0 HIT:          0 MISS:          0
cpu0_L1I PREFETCH REQUESTED:          0 ISSUED:          0 USEFUL:          0 USELESS:          0
cpu0_L1I AVERAGE MISS LATENCY: 11 cycles
cpu0_L2C TOTAL        ACCESS:    1667973 HIT:    1212905 MISS:     455068
cpu0_L2C LOAD         ACCESS:    1317108 HIT:     915758 MISS:     401350
cpu0_L2C RFO          ACCESS:      88605 HIT:      55753 MISS:      32852
cpu0_L2C PREFETCH     ACCESS:          0 HIT:          0 MISS:          0
cpu0_L2C WRITE        ACCESS:     238917 HIT:     237090 MISS:       1827
cpu0_L2C TRANSLATION  ACCESS:      23343 HIT:       4304 MISS:      19039
cpu0_L2C PREFETCH REQUESTED:          0 ISSUED:          0 USEFUL:          0 USELESS:          0
cpu0_L2C AVERAGE MISS LATENCY: 243.5 cycles
cpu0_STLB TOTAL        ACCESS:     505167 HIT:     482378 MISS:      22789
cpu0_STLB LOAD         ACCESS:     505167 HIT:     482378 MISS:      22789
cpu0_STLB RFO          ACCESS:          0 HIT:          0 MISS:          0
cpu0_STLB PREFETCH     ACCESS:          0 HIT:          0 MISS:          0
cpu0_STLB WRITE        ACCESS:          0 HIT:          0 MISS:          0
cpu0_STLB TRANSLATION  ACCESS:          0 HIT:          0 MISS:          0
cpu0_STLB PREFETCH REQUESTED:          0 ISSUED:          0 USEFUL:          0 USELESS:          0
cpu0_STLB AVERAGE MISS LATENCY: 321.9 cycles

DRAM Statistics

Channel 0 RQ ROW_BUFFER_HIT:      49703
  ROW_BUFFER_MISS:     229777
 AVG DBUS CONGESTED CYCLE: 3.855
WQ ROW_BUFFER_HIT: Channel 0 
  ROW_BUFFER_MISS:       5938
  FULL:      25170
