WARNING: physical memory size is smaller than virtual memory size.

*** ChampSim Multicore Out-of-Order Simulator ***
Warmup Instructions: 50000000
Simulation Instructions: 600000000
Number of CPUs: 1
Page size: 4096

Off-chip DRAM Size: 4 GiB Channels: 1 Width: 64-bit Data Race: 3200 MT/s
Heartbeat CPU 0 instructions: 10000000 cycles: 2500061 heartbeat IPC: 4 cumulative IPC: 4 (Simulation time: 00 hr 00 min 46 sec)
Heartbeat CPU 0 instructions: 20000000 cycles: 5000061 heartbeat IPC: 4 cumulative IPC: 4 (Simulation time: 00 hr 01 min 30 sec)
Heartbeat CPU 0 instructions: 30000000 cycles: 7500061 heartbeat IPC: 4 cumulative IPC: 4 (Simulation time: 00 hr 02 min 14 sec)
Heartbeat CPU 0 instructions: 40000000 cycles: 10000061 heartbeat IPC: 4 cumulative IPC: 4 (Simulation time: 00 hr 02 min 58 sec)
Heartbeat CPU 0 instructions: 50000000 cycles: 12500061 heartbeat IPC: 4 cumulative IPC: 4 (Simulation time: 00 hr 03 min 42 sec)
Warmup finished CPU 0 instructions: 50000000 cycles: 12500062 cumulative IPC: 4 (Simulation time: 00 hr 03 min 42 sec)
Warmup complete CPU 0 instructions: 50000000 cycles: 12500062 cumulative IPC: 4 (Simulation time: 00 hr 03 min 42 sec)
Heartbeat CPU 0 instructions: 60000002 cycles: 16911341 heartbeat IPC: 2.267 cumulative IPC: 2.267 (Simulation time: 00 hr 04 min 47 sec)
Heartbeat CPU 0 instructions: 70000003 cycles: 21897820 heartbeat IPC: 2.005 cumulative IPC: 2.128 (Simulation time: 00 hr 05 min 52 sec)
Heartbeat CPU 0 instructions: 80000001 cycles: 27247190 heartbeat IPC: 1.869 cumulative IPC: 2.034 (Simulation time: 00 hr 07 min 01 sec)
Heartbeat CPU 0 instructions: 90000000 cycles: 31546012 heartbeat IPC: 2.326 cumulative IPC: 2.1 (Simulation time: 00 hr 08 min 03 sec)
Heartbeat CPU 0 instructions: 100000003 cycles: 36406147 heartbeat IPC: 2.058 cumulative IPC: 2.092 (Simulation time: 00 hr 09 min 12 sec)
Heartbeat CPU 0 instructions: 110000002 cycles: 41284204 heartbeat IPC: 2.05 cumulative IPC: 2.084 (Simulation time: 00 hr 10 min 22 sec)
Heartbeat CPU 0 instructions: 120000001 cycles: 46280693 heartbeat IPC: 2.001 cumulative IPC: 2.072 (Simulation time: 00 hr 11 min 31 sec)
Heartbeat CPU 0 instructions: 130000003 cycles: 50851474 heartbeat IPC: 2.188 cumulative IPC: 2.086 (Simulation time: 00 hr 12 min 36 sec)
Heartbeat CPU 0 instructions: 140000002 cycles: 55744742 heartbeat IPC: 2.044 cumulative IPC: 2.081 (Simulation time: 00 hr 13 min 45 sec)
Heartbeat CPU 0 instructions: 150000001 cycles: 60416524 heartbeat IPC: 2.141 cumulative IPC: 2.087 (Simulation time: 00 hr 14 min 55 sec)
Heartbeat CPU 0 instructions: 160000000 cycles: 65057180 heartbeat IPC: 2.155 cumulative IPC: 2.093 (Simulation time: 00 hr 16 min 01 sec)
Heartbeat CPU 0 instructions: 170000000 cycles: 70394497 heartbeat IPC: 1.874 cumulative IPC: 2.073 (Simulation time: 00 hr 17 min 11 sec)
Heartbeat CPU 0 instructions: 180000001 cycles: 76116472 heartbeat IPC: 1.748 cumulative IPC: 2.043 (Simulation time: 00 hr 18 min 25 sec)
Heartbeat CPU 0 instructions: 190000002 cycles: 80593267 heartbeat IPC: 2.234 cumulative IPC: 2.056 (Simulation time: 00 hr 19 min 31 sec)
Heartbeat CPU 0 instructions: 200000002 cycles: 85503685 heartbeat IPC: 2.036 cumulative IPC: 2.055 (Simulation time: 00 hr 20 min 40 sec)
Heartbeat CPU 0 instructions: 210000000 cycles: 90509961 heartbeat IPC: 1.997 cumulative IPC: 2.051 (Simulation time: 00 hr 21 min 49 sec)
Heartbeat CPU 0 instructions: 220000001 cycles: 95435925 heartbeat IPC: 2.03 cumulative IPC: 2.05 (Simulation time: 00 hr 22 min 58 sec)
Heartbeat CPU 0 instructions: 230000002 cycles: 100684992 heartbeat IPC: 1.905 cumulative IPC: 2.041 (Simulation time: 00 hr 24 min 09 sec)
Heartbeat CPU 0 instructions: 240000001 cycles: 105652106 heartbeat IPC: 2.013 cumulative IPC: 2.04 (Simulation time: 00 hr 25 min 12 sec)
Heartbeat CPU 0 instructions: 250000003 cycles: 110840378 heartbeat IPC: 1.927 cumulative IPC: 2.034 (Simulation time: 00 hr 26 min 17 sec)
Heartbeat CPU 0 instructions: 260000001 cycles: 115702940 heartbeat IPC: 2.057 cumulative IPC: 2.035 (Simulation time: 00 hr 27 min 26 sec)
Heartbeat CPU 0 instructions: 270000000 cycles: 123412770 heartbeat IPC: 1.297 cumulative IPC: 1.984 (Simulation time: 00 hr 28 min 55 sec)
Heartbeat CPU 0 instructions: 280000000 cycles: 134510668 heartbeat IPC: 0.9011 cumulative IPC: 1.885 (Simulation time: 00 hr 30 min 48 sec)
Heartbeat CPU 0 instructions: 290000001 cycles: 144283531 heartbeat IPC: 1.023 cumulative IPC: 1.821 (Simulation time: 00 hr 32 min 31 sec)
Heartbeat CPU 0 instructions: 300000003 cycles: 151697527 heartbeat IPC: 1.349 cumulative IPC: 1.796 (Simulation time: 00 hr 33 min 59 sec)
Heartbeat CPU 0 instructions: 310000004 cycles: 162081718 heartbeat IPC: 0.963 cumulative IPC: 1.738 (Simulation time: 00 hr 35 min 46 sec)
Heartbeat CPU 0 instructions: 320000004 cycles: 167689323 heartbeat IPC: 1.783 cumulative IPC: 1.74 (Simulation time: 00 hr 37 min 02 sec)
Heartbeat CPU 0 instructions: 330000000 cycles: 172992860 heartbeat IPC: 1.886 cumulative IPC: 1.745 (Simulation time: 00 hr 38 min 09 sec)
Heartbeat CPU 0 instructions: 340000001 cycles: 178214504 heartbeat IPC: 1.915 cumulative IPC: 1.75 (Simulation time: 00 hr 39 min 14 sec)
Heartbeat CPU 0 instructions: 350000000 cycles: 183658975 heartbeat IPC: 1.837 cumulative IPC: 1.753 (Simulation time: 00 hr 40 min 25 sec)
Heartbeat CPU 0 instructions: 360000003 cycles: 188854803 heartbeat IPC: 1.925 cumulative IPC: 1.758 (Simulation time: 00 hr 41 min 37 sec)
Heartbeat CPU 0 instructions: 370000001 cycles: 193957207 heartbeat IPC: 1.96 cumulative IPC: 1.764 (Simulation time: 00 hr 42 min 50 sec)
Heartbeat CPU 0 instructions: 380000004 cycles: 199343059 heartbeat IPC: 1.857 cumulative IPC: 1.766 (Simulation time: 00 hr 44 min 02 sec)
Heartbeat CPU 0 instructions: 390000002 cycles: 204771177 heartbeat IPC: 1.842 cumulative IPC: 1.768 (Simulation time: 00 hr 45 min 15 sec)
Heartbeat CPU 0 instructions: 400000000 cycles: 210284949 heartbeat IPC: 1.814 cumulative IPC: 1.77 (Simulation time: 00 hr 46 min 28 sec)
Heartbeat CPU 0 instructions: 410000000 cycles: 218180374 heartbeat IPC: 1.267 cumulative IPC: 1.75 (Simulation time: 00 hr 48 min 01 sec)
Heartbeat CPU 0 instructions: 420000001 cycles: 229335986 heartbeat IPC: 0.8964 cumulative IPC: 1.706 (Simulation time: 00 hr 50 min 03 sec)
Heartbeat CPU 0 instructions: 430000000 cycles: 236775061 heartbeat IPC: 1.344 cumulative IPC: 1.694 (Simulation time: 00 hr 51 min 38 sec)
Heartbeat CPU 0 instructions: 440000002 cycles: 243675567 heartbeat IPC: 1.449 cumulative IPC: 1.687 (Simulation time: 00 hr 53 min 08 sec)
Heartbeat CPU 0 instructions: 450000000 cycles: 250480837 heartbeat IPC: 1.469 cumulative IPC: 1.681 (Simulation time: 00 hr 54 min 38 sec)
Heartbeat CPU 0 instructions: 460000002 cycles: 260517842 heartbeat IPC: 0.9963 cumulative IPC: 1.653 (Simulation time: 00 hr 56 min 25 sec)
Heartbeat CPU 0 instructions: 470000000 cycles: 269985734 heartbeat IPC: 1.056 cumulative IPC: 1.631 (Simulation time: 00 hr 58 min 09 sec)
Heartbeat CPU 0 instructions: 480000000 cycles: 275466942 heartbeat IPC: 1.824 cumulative IPC: 1.635 (Simulation time: 00 hr 59 min 21 sec)
Heartbeat CPU 0 instructions: 490000001 cycles: 281283350 heartbeat IPC: 1.719 cumulative IPC: 1.637 (Simulation time: 01 hr 00 min 35 sec)
Heartbeat CPU 0 instructions: 500000002 cycles: 286936643 heartbeat IPC: 1.769 cumulative IPC: 1.64 (Simulation time: 01 hr 01 min 49 sec)
Heartbeat CPU 0 instructions: 510000000 cycles: 292686202 heartbeat IPC: 1.739 cumulative IPC: 1.642 (Simulation time: 01 hr 03 min 05 sec)
Heartbeat CPU 0 instructions: 520000000 cycles: 298505946 heartbeat IPC: 1.718 cumulative IPC: 1.643 (Simulation time: 01 hr 04 min 20 sec)
Heartbeat CPU 0 instructions: 530000001 cycles: 309752873 heartbeat IPC: 0.8891 cumulative IPC: 1.615 (Simulation time: 01 hr 06 min 22 sec)
Heartbeat CPU 0 instructions: 540000000 cycles: 320347279 heartbeat IPC: 0.9439 cumulative IPC: 1.592 (Simulation time: 01 hr 08 min 17 sec)
Heartbeat CPU 0 instructions: 550000002 cycles: 332905440 heartbeat IPC: 0.7963 cumulative IPC: 1.561 (Simulation time: 01 hr 10 min 28 sec)
Heartbeat CPU 0 instructions: 560000004 cycles: 337632667 heartbeat IPC: 2.115 cumulative IPC: 1.569 (Simulation time: 01 hr 11 min 46 sec)
Heartbeat CPU 0 instructions: 570000001 cycles: 342044255 heartbeat IPC: 2.267 cumulative IPC: 1.578 (Simulation time: 01 hr 12 min 55 sec)
Heartbeat CPU 0 instructions: 580000003 cycles: 346287502 heartbeat IPC: 2.357 cumulative IPC: 1.588 (Simulation time: 01 hr 14 min 00 sec)
Heartbeat CPU 0 instructions: 590000001 cycles: 351191710 heartbeat IPC: 2.039 cumulative IPC: 1.594 (Simulation time: 01 hr 15 min 13 sec)
Heartbeat CPU 0 instructions: 600000003 cycles: 355832043 heartbeat IPC: 2.155 cumulative IPC: 1.602 (Simulation time: 01 hr 16 min 26 sec)
Heartbeat CPU 0 instructions: 610000001 cycles: 360692957 heartbeat IPC: 2.057 cumulative IPC: 1.608 (Simulation time: 01 hr 17 min 36 sec)
Heartbeat CPU 0 instructions: 620000000 cycles: 365760214 heartbeat IPC: 1.973 cumulative IPC: 1.614 (Simulation time: 01 hr 18 min 47 sec)
Heartbeat CPU 0 instructions: 630000002 cycles: 370007203 heartbeat IPC: 2.355 cumulative IPC: 1.622 (Simulation time: 01 hr 19 min 58 sec)
Heartbeat CPU 0 instructions: 640000004 cycles: 375329813 heartbeat IPC: 1.879 cumulative IPC: 1.626 (Simulation time: 01 hr 21 min 09 sec)
Heartbeat CPU 0 instructions: 650000001 cycles: 380094648 heartbeat IPC: 2.099 cumulative IPC: 1.632 (Simulation time: 01 hr 22 min 16 sec)
Simulation finished CPU 0 instructions: 600000001 cycles: 367594587 cumulative IPC: 1.632 (Simulation time: 01 hr 22 min 16 sec)
Simulation complete CPU 0 instructions: 600000001 cycles: 367594587 cumulative IPC: 1.632 (Simulation time: 01 hr 22 min 16 sec)

ChampSim completed all CPUs

=== Simulation ===
CPU 0 runs traces/400.perlbench-50B.champsimtrace.xz
Region of Interest Statistics

CPU 0 cumulative IPC: 1.632 instructions: 600000001 cycles: 367594587
CPU 0 Branch Prediction Accuracy: 93.83% MPKI: 12.71 Average ROB Occupancy at Mispredict: 29.49
Branch type MPKI
BRANCH_DIRECT_JUMP: 0.0176
BRANCH_INDIRECT: 0.38
BRANCH_CONDITIONAL: 11.9
BRANCH_DIRECT_CALL: 0.0067
BRANCH_INDIRECT_CALL: 0.431
BRANCH_RETURN: 0.0161

LLC TOTAL        ACCESS:     785539 HIT:     508689 MISS:     276850
LLC LOAD         ACCESS:     587731 HIT:     339409 MISS:     248322
LLC RFO          ACCESS:      47484 HIT:      29656 MISS:      17828
LLC PREFETCH     ACCESS:          0 HIT:          0 MISS:          0
LLC WRITE        ACCESS:     128251 HIT:     128169 MISS:         82
LLC TRANSLATION  ACCESS:      22073 HIT:      11455 MISS:      10618
LLC PREFETCH REQUESTED:          0 ISSUED:          0 USEFUL:          0 USELESS:          0
LLC AVERAGE MISS LATENCY: 529.5 cycles
cpu0_DTLB TOTAL        ACCESS:  156771522 HIT:  155470063 MISS:    1301459
cpu0_DTLB LOAD         ACCESS:  156771522 HIT:  155470063 MISS:    1301459
cpu0_DTLB RFO          ACCESS:          0 HIT:          0 MISS:          0
cpu0_DTLB PREFETCH     ACCESS:          0 HIT:          0 MISS:          0
cpu0_DTLB WRITE        ACCESS:          0 HIT:          0 MISS:          0
cpu0_DTLB TRANSLATION  ACCESS:          0 HIT:          0 MISS:          0
cpu0_DTLB PREFETCH REQUESTED:          0 ISSUED:          0 USEFUL:          0 USELESS:          0
cpu0_DTLB AVERAGE MISS LATENCY: 11.34 cycles
cpu0_ITLB TOTAL        ACCESS:    8932398 HIT:    8733818 MISS:     198580
cpu0_ITLB LOAD         ACCESS:    8932398 HIT:    8733818 MISS:     198580
cpu0_ITLB RFO          ACCESS:          0 HIT:          0 MISS:          0
cpu0_ITLB PREFETCH     ACCESS:          0 HIT:          0 MISS:          0
cpu0_ITLB WRITE        ACCESS:          0 HIT:          0 MISS:          0
cpu0_ITLB TRANSLATION  ACCESS:          0 HIT:          0 MISS:          0
cpu0_ITLB PREFETCH REQUESTED:          0 ISSUED:          0 USEFUL:          0 USELESS:          0
cpu0_ITLB AVERAGE MISS LATENCY: 2.876 cycles
cpu0_L1D TOTAL        ACCESS:  203611918 HIT:  199937492 MISS:    3674426
cpu0_L1D LOAD         ACCESS:  117935652 HIT:  114917261 MISS:    3018391
cpu0_L1D RFO          ACCESS:          0 HIT:          0 MISS:          0
cpu0_L1D PREFETCH     ACCESS:          0 HIT:          0 MISS:          0
cpu0_L1D WRITE        ACCESS:   85647721 HIT:   85018823 MISS:     628898
cpu0_L1D TRANSLATION  ACCESS:      28545 HIT:       1408 MISS:      27137
cpu0_L1D PREFETCH REQUESTED:          0 ISSUED:          0 USEFUL:          0 USELESS:          0
cpu0_L1D AVERAGE MISS LATENCY: 45.59 cycles
cpu0_L1I TOTAL        ACCESS:   10371126 HIT:    8573662 MISS:    1797464
cpu0_L1I LOAD         ACCESS:   10371126 HIT:    8573662 MISS:    1797464
cpu0_L1I RFO          ACCESS:          0 HIT:          0 MISS:          0
cpu0_L1I PREFETCH     ACCESS:          0 HIT:          0 MISS:          0
cpu0_L1I WRITE        ACCESS:          0 HIT:          0 MISS:          0
cpu0_L1I TRANSLATION  ACCESS:          0 HIT:          0 MISS:          0
cpu0_L1I PREFETCH REQUESTED:          0 ISSUED:          0 USEFUL:          0 USELESS:          0
cpu0_L1I AVERAGE MISS LATENCY: 10.18 cycles
cpu0_L2C TOTAL        ACCESS:    3837162 HIT:    3176589 MISS:     660573
cpu0_L2C LOAD         ACCESS:    3106357 HIT:    2518626 MISS:     587731
cpu0_L2C RFO          ACCESS:     191815 HIT:     144331 MISS:      47484
cpu0_L2C PREFETCH     ACCESS:          0 HIT:          0 MISS:          0
cpu0_L2C WRITE        ACCESS:     511933 HIT:     508648 MISS:       3285
cpu0_L2C TRANSLATION  ACCESS:      27057 HIT:       4984 MISS:      22073
cpu0_L2C PREFETCH REQUESTED:          0 ISSUED:          0 USEFUL:          0 USELESS:          0
cpu0_L2C AVERAGE MISS LATENCY: 242.2 cycles
cpu0_STLB TOTAL        ACCESS:    1009288 HIT:     982595 MISS:      26693
cpu0_STLB LOAD         ACCESS:    1009288 HIT:     982595 MISS:      26693
cpu0_STLB RFO          ACCESS:          0 HIT:          0 MISS:          0
cpu0_STLB PREFETCH     ACCESS:          0 HIT:          0 MISS:          0
cpu0_STLB WRITE        ACCESS:          0 HIT:          0 MISS:          0
cpu0_STLB TRANSLATION  ACCESS:          0 HIT:          0 MISS:          0
cpu0_STLB PREFETCH REQUESTED:          0 ISSUED:          0 USEFUL:          0 USELESS:          0
cpu0_STLB AVERAGE MISS LATENCY: 328.9 cycles

DRAM Statistics

Channel 0 RQ ROW_BUFFER_HIT:      57005
  ROW_BUFFER_MISS:     219750
 AVG DBUS CONGESTED CYCLE: 3.78
WQ ROW_BUFFER_HIT: Channel 0 
  ROW_BUFFER_MISS:       7547
  FULL:      26621
