WARNING: physical memory size is smaller than virtual memory size.

*** ChampSim Multicore Out-of-Order Simulator ***
Warmup Instructions: 50000000
Simulation Instructions: 600000000
Number of CPUs: 1
Page size: 4096

Off-chip DRAM Size: 4 GiB Channels: 1 Width: 64-bit Data Race: 3200 MT/s
Heartbeat CPU 0 instructions: 10000001 cycles: 2500318 heartbeat IPC: 3.999 cumulative IPC: 3.999 (Simulation time: 00 hr 00 min 50 sec)
Heartbeat CPU 0 instructions: 20000002 cycles: 5037121 heartbeat IPC: 3.942 cumulative IPC: 3.971 (Simulation time: 00 hr 01 min 46 sec)
Heartbeat CPU 0 instructions: 30000002 cycles: 7537121 heartbeat IPC: 4 cumulative IPC: 3.98 (Simulation time: 00 hr 02 min 37 sec)
Heartbeat CPU 0 instructions: 40000002 cycles: 10037121 heartbeat IPC: 4 cumulative IPC: 3.985 (Simulation time: 00 hr 03 min 24 sec)
Heartbeat CPU 0 instructions: 50000002 cycles: 12537121 heartbeat IPC: 4 cumulative IPC: 3.988 (Simulation time: 00 hr 04 min 07 sec)
Warmup finished CPU 0 instructions: 50000002 cycles: 12537122 cumulative IPC: 3.988 (Simulation time: 00 hr 04 min 07 sec)
Warmup complete CPU 0 instructions: 50000002 cycles: 12537122 cumulative IPC: 3.988 (Simulation time: 00 hr 04 min 07 sec)
Heartbeat CPU 0 instructions: 60000000 cycles: 17137571 heartbeat IPC: 2.174 cumulative IPC: 2.174 (Simulation time: 00 hr 05 min 06 sec)
Heartbeat CPU 0 instructions: 70000004 cycles: 21399993 heartbeat IPC: 2.346 cumulative IPC: 2.257 (Simulation time: 00 hr 06 min 11 sec)
Heartbeat CPU 0 instructions: 80000001 cycles: 25975094 heartbeat IPC: 2.186 cumulative IPC: 2.232 (Simulation time: 00 hr 07 min 15 sec)
Heartbeat CPU 0 instructions: 90000001 cycles: 30083361 heartbeat IPC: 2.434 cumulative IPC: 2.28 (Simulation time: 00 hr 08 min 17 sec)
Heartbeat CPU 0 instructions: 100000000 cycles: 34124736 heartbeat IPC: 2.474 cumulative IPC: 2.316 (Simulation time: 00 hr 09 min 19 sec)
Heartbeat CPU 0 instructions: 110000000 cycles: 38344375 heartbeat IPC: 2.37 cumulative IPC: 2.325 (Simulation time: 00 hr 10 min 23 sec)
Heartbeat CPU 0 instructions: 120000001 cycles: 42341625 heartbeat IPC: 2.502 cumulative IPC: 2.349 (Simulation time: 00 hr 11 min 25 sec)
Heartbeat CPU 0 instructions: 130000001 cycles: 46054792 heartbeat IPC: 2.693 cumulative IPC: 2.387 (Simulation time: 00 hr 12 min 26 sec)
Heartbeat CPU 0 instructions: 140000001 cycles: 50206891 heartbeat IPC: 2.408 cumulative IPC: 2.389 (Simulation time: 00 hr 13 min 29 sec)
Heartbeat CPU 0 instructions: 150000001 cycles: 54392308 heartbeat IPC: 2.389 cumulative IPC: 2.389 (Simulation time: 00 hr 14 min 33 sec)
Heartbeat CPU 0 instructions: 160000004 cycles: 58801138 heartbeat IPC: 2.268 cumulative IPC: 2.378 (Simulation time: 00 hr 15 min 38 sec)
Heartbeat CPU 0 instructions: 170000000 cycles: 67562557 heartbeat IPC: 1.141 cumulative IPC: 2.181 (Simulation time: 00 hr 17 min 14 sec)
Heartbeat CPU 0 instructions: 180000004 cycles: 77005791 heartbeat IPC: 1.059 cumulative IPC: 2.016 (Simulation time: 00 hr 19 min 02 sec)
Heartbeat CPU 0 instructions: 190000001 cycles: 86464770 heartbeat IPC: 1.057 cumulative IPC: 1.894 (Simulation time: 00 hr 20 min 43 sec)
Heartbeat CPU 0 instructions: 200000004 cycles: 90208033 heartbeat IPC: 2.671 cumulative IPC: 1.931 (Simulation time: 00 hr 21 min 40 sec)
Heartbeat CPU 0 instructions: 210000001 cycles: 94108131 heartbeat IPC: 2.564 cumulative IPC: 1.961 (Simulation time: 00 hr 22 min 37 sec)
Heartbeat CPU 0 instructions: 220000000 cycles: 98057306 heartbeat IPC: 2.532 cumulative IPC: 1.988 (Simulation time: 00 hr 23 min 34 sec)
Heartbeat CPU 0 instructions: 230000002 cycles: 102704630 heartbeat IPC: 2.152 cumulative IPC: 1.996 (Simulation time: 00 hr 24 min 38 sec)
Heartbeat CPU 0 instructions: 240000000 cycles: 106875726 heartbeat IPC: 2.397 cumulative IPC: 2.014 (Simulation time: 00 hr 25 min 41 sec)
Heartbeat CPU 0 instructions: 250000000 cycles: 111173218 heartbeat IPC: 2.327 cumulative IPC: 2.028 (Simulation time: 00 hr 26 min 44 sec)
Heartbeat CPU 0 instructions: 260000000 cycles: 115320906 heartbeat IPC: 2.411 cumulative IPC: 2.043 (Simulation time: 00 hr 27 min 46 sec)
Heartbeat CPU 0 instructions: 270000002 cycles: 119153855 heartbeat IPC: 2.609 cumulative IPC: 2.063 (Simulation time: 00 hr 28 min 47 sec)
Heartbeat CPU 0 instructions: 280000002 cycles: 123296459 heartbeat IPC: 2.414 cumulative IPC: 2.077 (Simulation time: 00 hr 29 min 50 sec)
Heartbeat CPU 0 instructions: 290000001 cycles: 127179360 heartbeat IPC: 2.575 cumulative IPC: 2.093 (Simulation time: 00 hr 30 min 51 sec)
Heartbeat CPU 0 instructions: 300000003 cycles: 130967020 heartbeat IPC: 2.64 cumulative IPC: 2.111 (Simulation time: 00 hr 31 min 53 sec)
Heartbeat CPU 0 instructions: 310000001 cycles: 135064449 heartbeat IPC: 2.441 cumulative IPC: 2.122 (Simulation time: 00 hr 32 min 56 sec)
Heartbeat CPU 0 instructions: 320000003 cycles: 139124749 heartbeat IPC: 2.463 cumulative IPC: 2.133 (Simulation time: 00 hr 34 min 02 sec)
Heartbeat CPU 0 instructions: 330000003 cycles: 143485410 heartbeat IPC: 2.293 cumulative IPC: 2.138 (Simulation time: 00 hr 35 min 08 sec)
Heartbeat CPU 0 instructions: 340000000 cycles: 152086285 heartbeat IPC: 1.163 cumulative IPC: 2.078 (Simulation time: 00 hr 36 min 49 sec)
Heartbeat CPU 0 instructions: 350000000 cycles: 161719302 heartbeat IPC: 1.038 cumulative IPC: 2.011 (Simulation time: 00 hr 38 min 38 sec)
Heartbeat CPU 0 instructions: 360000004 cycles: 170992438 heartbeat IPC: 1.078 cumulative IPC: 1.956 (Simulation time: 00 hr 40 min 25 sec)
Heartbeat CPU 0 instructions: 370000000 cycles: 174406116 heartbeat IPC: 2.929 cumulative IPC: 1.977 (Simulation time: 00 hr 41 min 23 sec)
Heartbeat CPU 0 instructions: 380000001 cycles: 177807581 heartbeat IPC: 2.94 cumulative IPC: 1.997 (Simulation time: 00 hr 42 min 22 sec)
Heartbeat CPU 0 instructions: 390000004 cycles: 181536211 heartbeat IPC: 2.682 cumulative IPC: 2.012 (Simulation time: 00 hr 43 min 22 sec)
Heartbeat CPU 0 instructions: 400000004 cycles: 185337507 heartbeat IPC: 2.631 cumulative IPC: 2.025 (Simulation time: 00 hr 44 min 22 sec)
Heartbeat CPU 0 instructions: 410000001 cycles: 188981221 heartbeat IPC: 2.744 cumulative IPC: 2.04 (Simulation time: 00 hr 45 min 21 sec)
Heartbeat CPU 0 instructions: 420000003 cycles: 192959425 heartbeat IPC: 2.514 cumulative IPC: 2.051 (Simulation time: 00 hr 46 min 22 sec)
Heartbeat CPU 0 instructions: 430000001 cycles: 196603037 heartbeat IPC: 2.745 cumulative IPC: 2.064 (Simulation time: 00 hr 47 min 20 sec)
Heartbeat CPU 0 instructions: 440000004 cycles: 200660603 heartbeat IPC: 2.465 cumulative IPC: 2.073 (Simulation time: 00 hr 48 min 18 sec)
Heartbeat CPU 0 instructions: 450000002 cycles: 204372764 heartbeat IPC: 2.694 cumulative IPC: 2.085 (Simulation time: 00 hr 49 min 15 sec)
Heartbeat CPU 0 instructions: 460000000 cycles: 208014301 heartbeat IPC: 2.746 cumulative IPC: 2.097 (Simulation time: 00 hr 50 min 15 sec)
Heartbeat CPU 0 instructions: 470000000 cycles: 211458657 heartbeat IPC: 2.903 cumulative IPC: 2.111 (Simulation time: 00 hr 51 min 14 sec)
Heartbeat CPU 0 instructions: 480000003 cycles: 215245609 heartbeat IPC: 2.641 cumulative IPC: 2.121 (Simulation time: 00 hr 52 min 14 sec)
Heartbeat CPU 0 instructions: 490000000 cycles: 218856984 heartbeat IPC: 2.769 cumulative IPC: 2.133 (Simulation time: 00 hr 53 min 14 sec)
Heartbeat CPU 0 instructions: 500000000 cycles: 222539556 heartbeat IPC: 2.715 cumulative IPC: 2.143 (Simulation time: 00 hr 54 min 14 sec)
Heartbeat CPU 0 instructions: 510000003 cycles: 226154178 heartbeat IPC: 2.767 cumulative IPC: 2.153 (Simulation time: 00 hr 55 min 14 sec)
Heartbeat CPU 0 instructions: 520000001 cycles: 229538086 heartbeat IPC: 2.955 cumulative IPC: 2.166 (Simulation time: 00 hr 56 min 13 sec)
Heartbeat CPU 0 instructions: 530000002 cycles: 233188870 heartbeat IPC: 2.739 cumulative IPC: 2.175 (Simulation time: 00 hr 57 min 14 sec)
Heartbeat CPU 0 instructions: 540000000 cycles: 236698347 heartbeat IPC: 2.849 cumulative IPC: 2.186 (Simulation time: 00 hr 58 min 13 sec)
Heartbeat CPU 0 instructions: 550000001 cycles: 240383840 heartbeat IPC: 2.713 cumulative IPC: 2.194 (Simulation time: 00 hr 59 min 14 sec)
Heartbeat CPU 0 instructions: 560000000 cycles: 244313313 heartbeat IPC: 2.545 cumulative IPC: 2.2 (Simulation time: 01 hr 00 min 16 sec)
Heartbeat CPU 0 instructions: 570000004 cycles: 250054928 heartbeat IPC: 1.742 cumulative IPC: 2.189 (Simulation time: 01 hr 01 min 34 sec)
Heartbeat CPU 0 instructions: 580000003 cycles: 260040460 heartbeat IPC: 1.001 cumulative IPC: 2.141 (Simulation time: 01 hr 03 min 25 sec)
Heartbeat CPU 0 instructions: 590000002 cycles: 271715958 heartbeat IPC: 0.8565 cumulative IPC: 2.084 (Simulation time: 01 hr 05 min 34 sec)
Heartbeat CPU 0 instructions: 600000000 cycles: 275416786 heartbeat IPC: 2.702 cumulative IPC: 2.092 (Simulation time: 01 hr 06 min 31 sec)
Heartbeat CPU 0 instructions: 610000000 cycles: 279254734 heartbeat IPC: 2.606 cumulative IPC: 2.1 (Simulation time: 01 hr 07 min 34 sec)
Heartbeat CPU 0 instructions: 620000001 cycles: 282678172 heartbeat IPC: 2.921 cumulative IPC: 2.11 (Simulation time: 01 hr 08 min 30 sec)
Heartbeat CPU 0 instructions: 630000002 cycles: 286941631 heartbeat IPC: 2.346 cumulative IPC: 2.114 (Simulation time: 01 hr 09 min 30 sec)
Heartbeat CPU 0 instructions: 640000001 cycles: 290831136 heartbeat IPC: 2.571 cumulative IPC: 2.12 (Simulation time: 01 hr 10 min 32 sec)
Heartbeat CPU 0 instructions: 650000000 cycles: 294580273 heartbeat IPC: 2.667 cumulative IPC: 2.127 (Simulation time: 01 hr 11 min 36 sec)
Simulation finished CPU 0 instructions: 600000001 cycles: 282043153 cumulative IPC: 2.127 (Simulation time: 01 hr 11 min 36 sec)
Simulation complete CPU 0 instructions: 600000001 cycles: 282043153 cumulative IPC: 2.127 (Simulation time: 01 hr 11 min 36 sec)

ChampSim completed all CPUs

=== Simulation ===
CPU 0 runs traces/400.perlbench-41B.champsimtrace.xz
Region of Interest Statistics

CPU 0 cumulative IPC: 2.127 instructions: 600000001 cycles: 282043153
CPU 0 Branch Prediction Accuracy: 96.56% MPKI: 7.112 Average ROB Occupancy at Mispredict: 47.12
Branch type MPKI
BRANCH_DIRECT_JUMP: 0.0123
BRANCH_INDIRECT: 0.323
BRANCH_CONDITIONAL: 6.56
BRANCH_DIRECT_CALL: 0.0043
BRANCH_INDIRECT_CALL: 0.2
BRANCH_RETURN: 0.00828

LLC TOTAL        ACCESS:     937713 HIT:     594480 MISS:     343233
LLC LOAD         ACCESS:     400631 HIT:     244611 MISS:     156020
LLC RFO          ACCESS:      32524 HIT:      19673 MISS:      12851
LLC PREFETCH     ACCESS:     400631 HIT:     235968 MISS:     164663
LLC WRITE        ACCESS:      84863 HIT:      84698 MISS:        165
LLC TRANSLATION  ACCESS:      19064 HIT:       9530 MISS:       9534
LLC PREFETCH REQUESTED:     400631 ISSUED:     400631 USEFUL:      57482 USELESS:      67971
LLC AVERAGE MISS LATENCY: 571.8 cycles
cpu0_DTLB TOTAL        ACCESS:  141911289 HIT:  141224753 MISS:     686536
cpu0_DTLB LOAD         ACCESS:  141911289 HIT:  141224753 MISS:     686536
cpu0_DTLB RFO          ACCESS:          0 HIT:          0 MISS:          0
cpu0_DTLB PREFETCH     ACCESS:          0 HIT:          0 MISS:          0
cpu0_DTLB WRITE        ACCESS:          0 HIT:          0 MISS:          0
cpu0_DTLB TRANSLATION  ACCESS:          0 HIT:          0 MISS:          0
cpu0_DTLB PREFETCH REQUESTED:          0 ISSUED:          0 USEFUL:          0 USELESS:          0
cpu0_DTLB AVERAGE MISS LATENCY: 14.64 cycles
cpu0_ITLB TOTAL        ACCESS:    4857486 HIT:    4804341 MISS:      53145
cpu0_ITLB LOAD         ACCESS:    4857486 HIT:    4804341 MISS:      53145
cpu0_ITLB RFO          ACCESS:          0 HIT:          0 MISS:          0
cpu0_ITLB PREFETCH     ACCESS:          0 HIT:          0 MISS:          0
cpu0_ITLB WRITE        ACCESS:          0 HIT:          0 MISS:          0
cpu0_ITLB TRANSLATION  ACCESS:          0 HIT:          0 MISS:          0
cpu0_ITLB PREFETCH REQUESTED:          0 ISSUED:          0 USEFUL:          0 USELESS:          0
cpu0_ITLB AVERAGE MISS LATENCY: 8.041 cycles
cpu0_L1D TOTAL        ACCESS:  188577631 HIT:  186849180 MISS:    1728451
cpu0_L1D LOAD         ACCESS:  105210943 HIT:  103862967 MISS:    1347976
cpu0_L1D RFO          ACCESS:          0 HIT:          0 MISS:          0
cpu0_L1D PREFETCH     ACCESS:          0 HIT:          0 MISS:          0
cpu0_L1D WRITE        ACCESS:   83342231 HIT:   82985151 MISS:     357080
cpu0_L1D TRANSLATION  ACCESS:      24457 HIT:       1062 MISS:      23395
cpu0_L1D PREFETCH REQUESTED:          0 ISSUED:          0 USEFUL:          0 USELESS:          0
cpu0_L1D AVERAGE MISS LATENCY: 71.33 cycles
cpu0_L1I TOTAL        ACCESS:    5595555 HIT:    4852089 MISS:     743466
cpu0_L1I LOAD         ACCESS:    5595555 HIT:    4852089 MISS:     743466
cpu0_L1I RFO          ACCESS:          0 HIT:          0 MISS:          0
cpu0_L1I PREFETCH     ACCESS:          0 HIT:          0 MISS:          0
cpu0_L1I WRITE        ACCESS:          0 HIT:          0 MISS:          0
cpu0_L1I TRANSLATION  ACCESS:          0 HIT:          0 MISS:          0
cpu0_L1I PREFETCH REQUESTED:          0 ISSUED:          0 USEFUL:          0 USELESS:          0
cpu0_L1I AVERAGE MISS LATENCY: 10.46 cycles
cpu0_L2C TOTAL        ACCESS:    1665739 HIT:    1211709 MISS:     454030
cpu0_L2C LOAD         ACCESS:    1315988 HIT:     915357 MISS:     400631
cpu0_L2C RFO          ACCESS:      88333 HIT:      55809 MISS:      32524
cpu0_L2C PREFETCH     ACCESS:          0 HIT:          0 MISS:          0
cpu0_L2C WRITE        ACCESS:     238091 HIT:     236280 MISS:       1811
cpu0_L2C TRANSLATION  ACCESS:      23327 HIT:       4263 MISS:      19064
cpu0_L2C PREFETCH REQUESTED:          0 ISSUED:          0 USEFUL:          0 USELESS:          0
cpu0_L2C AVERAGE MISS LATENCY: 268 cycles
cpu0_STLB TOTAL        ACCESS:     507345 HIT:     484551 MISS:      22794
cpu0_STLB LOAD         ACCESS:     507345 HIT:     484551 MISS:      22794
cpu0_STLB RFO          ACCESS:          0 HIT:          0 MISS:          0
cpu0_STLB PREFETCH     ACCESS:          0 HIT:          0 MISS:          0
cpu0_STLB WRITE        ACCESS:          0 HIT:          0 MISS:          0
cpu0_STLB TRANSLATION  ACCESS:          0 HIT:          0 MISS:          0
cpu0_STLB PREFETCH REQUESTED:          0 ISSUED:          0 USEFUL:          0 USELESS:          0
cpu0_STLB AVERAGE MISS LATENCY: 320.5 cycles

DRAM Statistics

Channel 0 RQ ROW_BUFFER_HIT:      55586
  ROW_BUFFER_MISS:     234219
 AVG DBUS CONGESTED CYCLE: 3.871
WQ ROW_BUFFER_HIT: Channel 0 
  ROW_BUFFER_MISS:       5562
  FULL:      27186
