WARNING: physical memory size is smaller than virtual memory size.

*** ChampSim Multicore Out-of-Order Simulator ***
Warmup Instructions: 50000000
Simulation Instructions: 600000000
Number of CPUs: 1
Page size: 4096

Off-chip DRAM Size: 4 GiB Channels: 1 Width: 64-bit Data Race: 3200 MT/s
Heartbeat CPU 0 instructions: 10000000 cycles: 2500061 heartbeat IPC: 4 cumulative IPC: 4 (Simulation time: 00 hr 01 min 33 sec)
Heartbeat CPU 0 instructions: 20000000 cycles: 5000061 heartbeat IPC: 4 cumulative IPC: 4 (Simulation time: 00 hr 03 min 31 sec)
Heartbeat CPU 0 instructions: 30000000 cycles: 7500061 heartbeat IPC: 4 cumulative IPC: 4 (Simulation time: 00 hr 06 min 06 sec)
Heartbeat CPU 0 instructions: 40000000 cycles: 10000061 heartbeat IPC: 4 cumulative IPC: 4 (Simulation time: 00 hr 09 min 18 sec)
Heartbeat CPU 0 instructions: 50000000 cycles: 12500061 heartbeat IPC: 4 cumulative IPC: 4 (Simulation time: 00 hr 12 min 55 sec)
Warmup finished CPU 0 instructions: 50000000 cycles: 12500062 cumulative IPC: 4 (Simulation time: 00 hr 12 min 55 sec)
Warmup complete CPU 0 instructions: 50000000 cycles: 12500062 cumulative IPC: 4 (Simulation time: 00 hr 12 min 55 sec)
Heartbeat CPU 0 instructions: 60000002 cycles: 16911341 heartbeat IPC: 2.267 cumulative IPC: 2.267 (Simulation time: 00 hr 17 min 52 sec)
Heartbeat CPU 0 instructions: 70000003 cycles: 21897820 heartbeat IPC: 2.005 cumulative IPC: 2.128 (Simulation time: 00 hr 23 min 08 sec)
Heartbeat CPU 0 instructions: 80000001 cycles: 27247190 heartbeat IPC: 1.869 cumulative IPC: 2.034 (Simulation time: 00 hr 28 min 30 sec)
Heartbeat CPU 0 instructions: 90000000 cycles: 31546012 heartbeat IPC: 2.326 cumulative IPC: 2.1 (Simulation time: 00 hr 33 min 19 sec)
Heartbeat CPU 0 instructions: 100000003 cycles: 36406147 heartbeat IPC: 2.058 cumulative IPC: 2.092 (Simulation time: 00 hr 38 min 27 sec)
Heartbeat CPU 0 instructions: 110000002 cycles: 41284204 heartbeat IPC: 2.05 cumulative IPC: 2.084 (Simulation time: 00 hr 43 min 36 sec)
Heartbeat CPU 0 instructions: 120000001 cycles: 46280693 heartbeat IPC: 2.001 cumulative IPC: 2.072 (Simulation time: 00 hr 48 min 47 sec)
Heartbeat CPU 0 instructions: 130000003 cycles: 50851474 heartbeat IPC: 2.188 cumulative IPC: 2.086 (Simulation time: 00 hr 53 min 47 sec)
Heartbeat CPU 0 instructions: 140000002 cycles: 55744742 heartbeat IPC: 2.044 cumulative IPC: 2.081 (Simulation time: 00 hr 58 min 57 sec)
Heartbeat CPU 0 instructions: 150000001 cycles: 60416524 heartbeat IPC: 2.141 cumulative IPC: 2.087 (Simulation time: 01 hr 03 min 55 sec)
Heartbeat CPU 0 instructions: 160000000 cycles: 65057180 heartbeat IPC: 2.155 cumulative IPC: 2.093 (Simulation time: 01 hr 08 min 58 sec)
Heartbeat CPU 0 instructions: 170000000 cycles: 70394497 heartbeat IPC: 1.874 cumulative IPC: 2.073 (Simulation time: 01 hr 14 min 21 sec)
Heartbeat CPU 0 instructions: 180000001 cycles: 76116472 heartbeat IPC: 1.748 cumulative IPC: 2.043 (Simulation time: 01 hr 20 min 03 sec)
Heartbeat CPU 0 instructions: 190000002 cycles: 80593267 heartbeat IPC: 2.234 cumulative IPC: 2.056 (Simulation time: 01 hr 25 min 03 sec)
Heartbeat CPU 0 instructions: 200000002 cycles: 85503685 heartbeat IPC: 2.036 cumulative IPC: 2.055 (Simulation time: 01 hr 30 min 14 sec)
Heartbeat CPU 0 instructions: 210000000 cycles: 90509961 heartbeat IPC: 1.997 cumulative IPC: 2.051 (Simulation time: 01 hr 35 min 24 sec)
Heartbeat CPU 0 instructions: 220000001 cycles: 95435925 heartbeat IPC: 2.03 cumulative IPC: 2.05 (Simulation time: 01 hr 40 min 38 sec)
Heartbeat CPU 0 instructions: 230000002 cycles: 100684992 heartbeat IPC: 1.905 cumulative IPC: 2.041 (Simulation time: 01 hr 45 min 55 sec)
Heartbeat CPU 0 instructions: 240000001 cycles: 105652106 heartbeat IPC: 2.013 cumulative IPC: 2.04 (Simulation time: 01 hr 51 min 04 sec)
Heartbeat CPU 0 instructions: 250000003 cycles: 110840378 heartbeat IPC: 1.927 cumulative IPC: 2.034 (Simulation time: 01 hr 56 min 20 sec)
Heartbeat CPU 0 instructions: 260000001 cycles: 115702940 heartbeat IPC: 2.057 cumulative IPC: 2.035 (Simulation time: 02 hr 01 min 30 sec)
Heartbeat CPU 0 instructions: 270000000 cycles: 123412770 heartbeat IPC: 1.297 cumulative IPC: 1.984 (Simulation time: 02 hr 08 min 34 sec)
Heartbeat CPU 0 instructions: 280000000 cycles: 134559078 heartbeat IPC: 0.8972 cumulative IPC: 1.884 (Simulation time: 02 hr 17 min 56 sec)
Heartbeat CPU 0 instructions: 290000001 cycles: 144564407 heartbeat IPC: 0.9995 cumulative IPC: 1.817 (Simulation time: 02 hr 26 min 51 sec)
Heartbeat CPU 0 instructions: 300000003 cycles: 152076272 heartbeat IPC: 1.331 cumulative IPC: 1.791 (Simulation time: 02 hr 34 min 16 sec)
Heartbeat CPU 0 instructions: 310000004 cycles: 162873852 heartbeat IPC: 0.9261 cumulative IPC: 1.729 (Simulation time: 02 hr 43 min 35 sec)
Heartbeat CPU 0 instructions: 320000004 cycles: 168533490 heartbeat IPC: 1.767 cumulative IPC: 1.73 (Simulation time: 02 hr 49 min 29 sec)
Heartbeat CPU 0 instructions: 330000000 cycles: 173770162 heartbeat IPC: 1.91 cumulative IPC: 1.736 (Simulation time: 02 hr 54 min 59 sec)
Heartbeat CPU 0 instructions: 340000001 cycles: 178532089 heartbeat IPC: 2.1 cumulative IPC: 1.747 (Simulation time: 03 hr 00 min 09 sec)
Heartbeat CPU 0 instructions: 350000000 cycles: 183492837 heartbeat IPC: 2.016 cumulative IPC: 1.754 (Simulation time: 03 hr 05 min 31 sec)
Heartbeat CPU 0 instructions: 360000003 cycles: 188286898 heartbeat IPC: 2.086 cumulative IPC: 1.763 (Simulation time: 03 hr 10 min 42 sec)
Heartbeat CPU 0 instructions: 370000001 cycles: 193080536 heartbeat IPC: 2.086 cumulative IPC: 1.772 (Simulation time: 03 hr 15 min 54 sec)
Heartbeat CPU 0 instructions: 380000004 cycles: 198197023 heartbeat IPC: 1.954 cumulative IPC: 1.777 (Simulation time: 03 hr 21 min 15 sec)
Heartbeat CPU 0 instructions: 390000002 cycles: 203306799 heartbeat IPC: 1.957 cumulative IPC: 1.782 (Simulation time: 03 hr 26 min 39 sec)
Heartbeat CPU 0 instructions: 400000000 cycles: 208570848 heartbeat IPC: 1.9 cumulative IPC: 1.785 (Simulation time: 03 hr 32 min 06 sec)
Heartbeat CPU 0 instructions: 410000000 cycles: 215707610 heartbeat IPC: 1.401 cumulative IPC: 1.772 (Simulation time: 03 hr 38 min 54 sec)
Heartbeat CPU 0 instructions: 420000001 cycles: 225854557 heartbeat IPC: 0.9855 cumulative IPC: 1.734 (Simulation time: 03 hr 47 min 47 sec)
Heartbeat CPU 0 instructions: 430000000 cycles: 232877721 heartbeat IPC: 1.424 cumulative IPC: 1.724 (Simulation time: 03 hr 54 min 54 sec)
Heartbeat CPU 0 instructions: 440000002 cycles: 239720092 heartbeat IPC: 1.461 cumulative IPC: 1.716 (Simulation time: 04 hr 01 min 43 sec)
Heartbeat CPU 0 instructions: 450000000 cycles: 246439207 heartbeat IPC: 1.488 cumulative IPC: 1.71 (Simulation time: 04 hr 08 min 29 sec)
Heartbeat CPU 0 instructions: 460000002 cycles: 256122293 heartbeat IPC: 1.033 cumulative IPC: 1.683 (Simulation time: 04 hr 17 min 04 sec)
Heartbeat CPU 0 instructions: 470000000 cycles: 265237850 heartbeat IPC: 1.097 cumulative IPC: 1.662 (Simulation time: 04 hr 25 min 14 sec)
Heartbeat CPU 0 instructions: 480000000 cycles: 270516358 heartbeat IPC: 1.894 cumulative IPC: 1.667 (Simulation time: 04 hr 30 min 44 sec)
Heartbeat CPU 0 instructions: 490000001 cycles: 275632039 heartbeat IPC: 1.955 cumulative IPC: 1.672 (Simulation time: 04 hr 36 min 09 sec)
Heartbeat CPU 0 instructions: 500000002 cycles: 280790732 heartbeat IPC: 1.938 cumulative IPC: 1.677 (Simulation time: 04 hr 41 min 32 sec)
Heartbeat CPU 0 instructions: 510000000 cycles: 286156733 heartbeat IPC: 1.864 cumulative IPC: 1.681 (Simulation time: 04 hr 47 min 06 sec)
Heartbeat CPU 0 instructions: 520000000 cycles: 291669973 heartbeat IPC: 1.814 cumulative IPC: 1.684 (Simulation time: 04 hr 52 min 49 sec)
Heartbeat CPU 0 instructions: 530000001 cycles: 301206856 heartbeat IPC: 1.049 cumulative IPC: 1.663 (Simulation time: 05 hr 01 min 14 sec)
Heartbeat CPU 0 instructions: 540000000 cycles: 310442104 heartbeat IPC: 1.083 cumulative IPC: 1.645 (Simulation time: 05 hr 09 min 39 sec)
Heartbeat CPU 0 instructions: 550000002 cycles: 321297457 heartbeat IPC: 0.9212 cumulative IPC: 1.619 (Simulation time: 05 hr 18 min 57 sec)
Heartbeat CPU 0 instructions: 560000004 cycles: 325998065 heartbeat IPC: 2.127 cumulative IPC: 1.627 (Simulation time: 05 hr 24 min 17 sec)
Heartbeat CPU 0 instructions: 570000001 cycles: 330400193 heartbeat IPC: 2.272 cumulative IPC: 1.636 (Simulation time: 05 hr 29 min 15 sec)
Heartbeat CPU 0 instructions: 580000003 cycles: 334628942 heartbeat IPC: 2.365 cumulative IPC: 1.645 (Simulation time: 05 hr 34 min 21 sec)
Heartbeat CPU 0 instructions: 590000001 cycles: 339524306 heartbeat IPC: 2.043 cumulative IPC: 1.651 (Simulation time: 05 hr 39 min 50 sec)
Heartbeat CPU 0 instructions: 600000003 cycles: 344164374 heartbeat IPC: 2.155 cumulative IPC: 1.658 (Simulation time: 05 hr 45 min 25 sec)
Heartbeat CPU 0 instructions: 610000001 cycles: 349019305 heartbeat IPC: 2.06 cumulative IPC: 1.664 (Simulation time: 05 hr 50 min 52 sec)
Heartbeat CPU 0 instructions: 620000000 cycles: 354082900 heartbeat IPC: 1.975 cumulative IPC: 1.669 (Simulation time: 05 hr 56 min 32 sec)
Heartbeat CPU 0 instructions: 630000002 cycles: 358322917 heartbeat IPC: 2.358 cumulative IPC: 1.677 (Simulation time: 06 hr 01 min 44 sec)
Heartbeat CPU 0 instructions: 640000004 cycles: 363613028 heartbeat IPC: 1.89 cumulative IPC: 1.68 (Simulation time: 06 hr 07 min 32 sec)
Heartbeat CPU 0 instructions: 650000001 cycles: 368363163 heartbeat IPC: 2.105 cumulative IPC: 1.686 (Simulation time: 06 hr 12 min 54 sec)
Simulation finished CPU 0 instructions: 600000001 cycles: 355863102 cumulative IPC: 1.686 (Simulation time: 06 hr 12 min 54 sec)
Simulation complete CPU 0 instructions: 600000001 cycles: 355863102 cumulative IPC: 1.686 (Simulation time: 06 hr 12 min 54 sec)

ChampSim completed all CPUs

=== Simulation ===
CPU 0 runs traces/400.perlbench-50B.champsimtrace.xz
Region of Interest Statistics

CPU 0 cumulative IPC: 1.686 instructions: 600000001 cycles: 355863102
CPU 0 Branch Prediction Accuracy: 93.83% MPKI: 12.71 Average ROB Occupancy at Mispredict: 29.43
Branch type MPKI
BRANCH_DIRECT_JUMP: 0.0176
BRANCH_INDIRECT: 0.38
BRANCH_CONDITIONAL: 11.9
BRANCH_DIRECT_CALL: 0.0067
BRANCH_INDIRECT_CALL: 0.431
BRANCH_RETURN: 0.0161

LLC TOTAL        ACCESS:     785751 HIT:     570551 MISS:     215200
LLC LOAD         ACCESS:     587891 HIT:     400963 MISS:     186928
LLC RFO          ACCESS:      47577 HIT:      32789 MISS:      14788
LLC PREFETCH     ACCESS:          0 HIT:          0 MISS:          0
LLC WRITE        ACCESS:     128306 HIT:     126033 MISS:       2273
LLC TRANSLATION  ACCESS:      21977 HIT:      10766 MISS:      11211
LLC PREFETCH REQUESTED:          0 ISSUED:          0 USEFUL:          0 USELESS:          0
LLC AVERAGE MISS LATENCY: 501.6 cycles
cpu0_DTLB TOTAL        ACCESS:  156772922 HIT:  155471572 MISS:    1301350
cpu0_DTLB LOAD         ACCESS:  156772922 HIT:  155471572 MISS:    1301350
cpu0_DTLB RFO          ACCESS:          0 HIT:          0 MISS:          0
cpu0_DTLB PREFETCH     ACCESS:          0 HIT:          0 MISS:          0
cpu0_DTLB WRITE        ACCESS:          0 HIT:          0 MISS:          0
cpu0_DTLB TRANSLATION  ACCESS:          0 HIT:          0 MISS:          0
cpu0_DTLB PREFETCH REQUESTED:          0 ISSUED:          0 USEFUL:          0 USELESS:          0
cpu0_DTLB AVERAGE MISS LATENCY: 11.21 cycles
cpu0_ITLB TOTAL        ACCESS:    8932714 HIT:    8734139 MISS:     198575
cpu0_ITLB LOAD         ACCESS:    8932714 HIT:    8734139 MISS:     198575
cpu0_ITLB RFO          ACCESS:          0 HIT:          0 MISS:          0
cpu0_ITLB PREFETCH     ACCESS:          0 HIT:          0 MISS:          0
cpu0_ITLB WRITE        ACCESS:          0 HIT:          0 MISS:          0
cpu0_ITLB TRANSLATION  ACCESS:          0 HIT:          0 MISS:          0
cpu0_ITLB PREFETCH REQUESTED:          0 ISSUED:          0 USEFUL:          0 USELESS:          0
cpu0_ITLB AVERAGE MISS LATENCY: 2.895 cycles
cpu0_L1D TOTAL        ACCESS:  203618296 HIT:  199955654 MISS:    3662642
cpu0_L1D LOAD         ACCESS:  117941842 HIT:  114930256 MISS:    3011586
cpu0_L1D RFO          ACCESS:          0 HIT:          0 MISS:          0
cpu0_L1D PREFETCH     ACCESS:          0 HIT:          0 MISS:          0
cpu0_L1D WRITE        ACCESS:   85647908 HIT:   85023989 MISS:     623919
cpu0_L1D TRANSLATION  ACCESS:      28546 HIT:       1409 MISS:      27137
cpu0_L1D PREFETCH REQUESTED:          0 ISSUED:          0 USEFUL:          0 USELESS:          0
cpu0_L1D AVERAGE MISS LATENCY: 35.61 cycles
cpu0_L1I TOTAL        ACCESS:   10371410 HIT:    8573929 MISS:    1797481
cpu0_L1I LOAD         ACCESS:   10371410 HIT:    8573929 MISS:    1797481
cpu0_L1I RFO          ACCESS:          0 HIT:          0 MISS:          0
cpu0_L1I PREFETCH     ACCESS:          0 HIT:          0 MISS:          0
cpu0_L1I WRITE        ACCESS:          0 HIT:          0 MISS:          0
cpu0_L1I TRANSLATION  ACCESS:          0 HIT:          0 MISS:          0
cpu0_L1I PREFETCH REQUESTED:          0 ISSUED:          0 USEFUL:          0 USELESS:          0
cpu0_L1I AVERAGE MISS LATENCY: 9.742 cycles
cpu0_L2C TOTAL        ACCESS:    3837128 HIT:    3176420 MISS:     660708
cpu0_L2C LOAD         ACCESS:    3106396 HIT:    2518505 MISS:     587891
cpu0_L2C RFO          ACCESS:     191795 HIT:     144218 MISS:      47577
cpu0_L2C PREFETCH     ACCESS:          0 HIT:          0 MISS:          0
cpu0_L2C WRITE        ACCESS:     511880 HIT:     508617 MISS:       3263
cpu0_L2C TRANSLATION  ACCESS:      27057 HIT:       5080 MISS:      21977
cpu0_L2C PREFETCH REQUESTED:          0 ISSUED:          0 USEFUL:          0 USELESS:          0
cpu0_L2C AVERAGE MISS LATENCY: 183.6 cycles
cpu0_STLB TOTAL        ACCESS:    1009234 HIT:     982541 MISS:      26693
cpu0_STLB LOAD         ACCESS:    1009234 HIT:     982541 MISS:      26693
cpu0_STLB RFO          ACCESS:          0 HIT:          0 MISS:          0
cpu0_STLB PREFETCH     ACCESS:          0 HIT:          0 MISS:          0
cpu0_STLB WRITE        ACCESS:          0 HIT:          0 MISS:          0
cpu0_STLB TRANSLATION  ACCESS:          0 HIT:          0 MISS:          0
cpu0_STLB PREFETCH REQUESTED:          0 ISSUED:          0 USEFUL:          0 USELESS:          0
cpu0_STLB AVERAGE MISS LATENCY: 322.2 cycles

DRAM Statistics

Channel 0 RQ ROW_BUFFER_HIT:      45573
  ROW_BUFFER_MISS:     167342
 AVG DBUS CONGESTED CYCLE: 3.749
WQ ROW_BUFFER_HIT: Channel 0 
  ROW_BUFFER_MISS:       7447
  FULL:      15021
