WARNING: physical memory size is smaller than virtual memory size.

*** ChampSim Multicore Out-of-Order Simulator ***
Warmup Instructions: 50000000
Simulation Instructions: 600000000
Number of CPUs: 1
Page size: 4096

Off-chip DRAM Size: 4 GiB Channels: 1 Width: 64-bit Data Race: 3200 MT/s
Heartbeat CPU 0 instructions: 10000001 cycles: 2500318 heartbeat IPC: 3.999 cumulative IPC: 3.999 (Simulation time: 00 hr 03 min 37 sec)
Heartbeat CPU 0 instructions: 20000002 cycles: 5037110 heartbeat IPC: 3.942 cumulative IPC: 3.971 (Simulation time: 00 hr 07 min 07 sec)
Heartbeat CPU 0 instructions: 30000002 cycles: 7537110 heartbeat IPC: 4 cumulative IPC: 3.98 (Simulation time: 00 hr 10 min 31 sec)
Heartbeat CPU 0 instructions: 40000002 cycles: 10037110 heartbeat IPC: 4 cumulative IPC: 3.985 (Simulation time: 00 hr 13 min 46 sec)
Heartbeat CPU 0 instructions: 50000002 cycles: 12537110 heartbeat IPC: 4 cumulative IPC: 3.988 (Simulation time: 00 hr 17 min 02 sec)
Warmup finished CPU 0 instructions: 50000002 cycles: 12537111 cumulative IPC: 3.988 (Simulation time: 00 hr 17 min 02 sec)
Warmup complete CPU 0 instructions: 50000002 cycles: 12537111 cumulative IPC: 3.988 (Simulation time: 00 hr 17 min 02 sec)
Heartbeat CPU 0 instructions: 60000000 cycles: 17699153 heartbeat IPC: 1.937 cumulative IPC: 1.937 (Simulation time: 00 hr 22 min 04 sec)
Heartbeat CPU 0 instructions: 70000002 cycles: 22599878 heartbeat IPC: 2.041 cumulative IPC: 1.988 (Simulation time: 00 hr 27 min 01 sec)
Heartbeat CPU 0 instructions: 80000001 cycles: 27965435 heartbeat IPC: 1.864 cumulative IPC: 1.944 (Simulation time: 00 hr 32 min 09 sec)
Heartbeat CPU 0 instructions: 90000001 cycles: 32845223 heartbeat IPC: 2.049 cumulative IPC: 1.97 (Simulation time: 00 hr 37 min 04 sec)
Heartbeat CPU 0 instructions: 100000000 cycles: 37959578 heartbeat IPC: 1.955 cumulative IPC: 1.967 (Simulation time: 00 hr 42 min 05 sec)
Heartbeat CPU 0 instructions: 110000000 cycles: 42851858 heartbeat IPC: 2.044 cumulative IPC: 1.979 (Simulation time: 00 hr 46 min 59 sec)
Heartbeat CPU 0 instructions: 120000001 cycles: 48043880 heartbeat IPC: 1.926 cumulative IPC: 1.971 (Simulation time: 00 hr 52 min 03 sec)
Heartbeat CPU 0 instructions: 130000001 cycles: 53205616 heartbeat IPC: 1.937 cumulative IPC: 1.967 (Simulation time: 00 hr 57 min 10 sec)
Heartbeat CPU 0 instructions: 140000001 cycles: 58522804 heartbeat IPC: 1.881 cumulative IPC: 1.957 (Simulation time: 01 hr 02 min 23 sec)
Heartbeat CPU 0 instructions: 150000001 cycles: 63849846 heartbeat IPC: 1.877 cumulative IPC: 1.949 (Simulation time: 01 hr 07 min 38 sec)
Heartbeat CPU 0 instructions: 160000004 cycles: 69060047 heartbeat IPC: 1.919 cumulative IPC: 1.946 (Simulation time: 01 hr 12 min 44 sec)
Heartbeat CPU 0 instructions: 170000000 cycles: 77839703 heartbeat IPC: 1.139 cumulative IPC: 1.838 (Simulation time: 01 hr 20 min 07 sec)
Heartbeat CPU 0 instructions: 180000004 cycles: 84671468 heartbeat IPC: 1.464 cumulative IPC: 1.802 (Simulation time: 01 hr 26 min 33 sec)
Heartbeat CPU 0 instructions: 190000001 cycles: 92167037 heartbeat IPC: 1.334 cumulative IPC: 1.758 (Simulation time: 01 hr 33 min 18 sec)
Heartbeat CPU 0 instructions: 200000003 cycles: 96812367 heartbeat IPC: 2.153 cumulative IPC: 1.78 (Simulation time: 01 hr 38 min 08 sec)
Heartbeat CPU 0 instructions: 210000001 cycles: 101623505 heartbeat IPC: 2.079 cumulative IPC: 1.796 (Simulation time: 01 hr 43 min 03 sec)
Heartbeat CPU 0 instructions: 220000000 cycles: 106399662 heartbeat IPC: 2.094 cumulative IPC: 1.811 (Simulation time: 01 hr 47 min 54 sec)
Heartbeat CPU 0 instructions: 230000002 cycles: 111569082 heartbeat IPC: 1.934 cumulative IPC: 1.818 (Simulation time: 01 hr 52 min 56 sec)
Heartbeat CPU 0 instructions: 240000000 cycles: 116345834 heartbeat IPC: 2.093 cumulative IPC: 1.83 (Simulation time: 01 hr 57 min 49 sec)
Heartbeat CPU 0 instructions: 250000000 cycles: 121423492 heartbeat IPC: 1.969 cumulative IPC: 1.837 (Simulation time: 02 hr 02 min 52 sec)
Heartbeat CPU 0 instructions: 260000000 cycles: 126398054 heartbeat IPC: 2.01 cumulative IPC: 1.844 (Simulation time: 02 hr 07 min 52 sec)
Heartbeat CPU 0 instructions: 270000002 cycles: 131239976 heartbeat IPC: 2.065 cumulative IPC: 1.853 (Simulation time: 02 hr 12 min 47 sec)
Heartbeat CPU 0 instructions: 280000002 cycles: 136127035 heartbeat IPC: 2.046 cumulative IPC: 1.861 (Simulation time: 02 hr 17 min 42 sec)
Heartbeat CPU 0 instructions: 290000001 cycles: 141475562 heartbeat IPC: 1.87 cumulative IPC: 1.861 (Simulation time: 02 hr 22 min 55 sec)
Heartbeat CPU 0 instructions: 300000003 cycles: 146507293 heartbeat IPC: 1.987 cumulative IPC: 1.866 (Simulation time: 02 hr 27 min 58 sec)
Heartbeat CPU 0 instructions: 310000001 cycles: 151768017 heartbeat IPC: 1.901 cumulative IPC: 1.867 (Simulation time: 02 hr 33 min 05 sec)
Heartbeat CPU 0 instructions: 320000003 cycles: 156963743 heartbeat IPC: 1.925 cumulative IPC: 1.869 (Simulation time: 02 hr 38 min 11 sec)
Heartbeat CPU 0 instructions: 330000003 cycles: 162245012 heartbeat IPC: 1.893 cumulative IPC: 1.87 (Simulation time: 02 hr 43 min 16 sec)
Heartbeat CPU 0 instructions: 340000000 cycles: 171185421 heartbeat IPC: 1.119 cumulative IPC: 1.828 (Simulation time: 02 hr 50 min 46 sec)
Heartbeat CPU 0 instructions: 350000000 cycles: 178616734 heartbeat IPC: 1.346 cumulative IPC: 1.806 (Simulation time: 02 hr 57 min 28 sec)
Heartbeat CPU 0 instructions: 360000004 cycles: 186642437 heartbeat IPC: 1.246 cumulative IPC: 1.781 (Simulation time: 03 hr 04 min 31 sec)
Heartbeat CPU 0 instructions: 370000000 cycles: 190959540 heartbeat IPC: 2.316 cumulative IPC: 1.793 (Simulation time: 03 hr 09 min 10 sec)
Heartbeat CPU 0 instructions: 380000001 cycles: 195783533 heartbeat IPC: 2.073 cumulative IPC: 1.801 (Simulation time: 03 hr 14 min 14 sec)
Heartbeat CPU 0 instructions: 390000002 cycles: 200544692 heartbeat IPC: 2.1 cumulative IPC: 1.808 (Simulation time: 03 hr 19 min 10 sec)
Heartbeat CPU 0 instructions: 400000004 cycles: 205443970 heartbeat IPC: 2.041 cumulative IPC: 1.814 (Simulation time: 03 hr 24 min 08 sec)
Heartbeat CPU 0 instructions: 410000000 cycles: 210080468 heartbeat IPC: 2.157 cumulative IPC: 1.822 (Simulation time: 03 hr 28 min 55 sec)
Heartbeat CPU 0 instructions: 420000000 cycles: 215123867 heartbeat IPC: 1.983 cumulative IPC: 1.826 (Simulation time: 03 hr 33 min 55 sec)
Heartbeat CPU 0 instructions: 430000001 cycles: 219556385 heartbeat IPC: 2.256 cumulative IPC: 1.836 (Simulation time: 03 hr 38 min 38 sec)
Heartbeat CPU 0 instructions: 440000000 cycles: 224854765 heartbeat IPC: 1.887 cumulative IPC: 1.837 (Simulation time: 03 hr 43 min 46 sec)
Heartbeat CPU 0 instructions: 450000002 cycles: 229470974 heartbeat IPC: 2.166 cumulative IPC: 1.844 (Simulation time: 03 hr 48 min 32 sec)
Heartbeat CPU 0 instructions: 460000000 cycles: 234238330 heartbeat IPC: 2.098 cumulative IPC: 1.849 (Simulation time: 03 hr 53 min 23 sec)
Heartbeat CPU 0 instructions: 470000000 cycles: 239187558 heartbeat IPC: 2.021 cumulative IPC: 1.853 (Simulation time: 03 hr 58 min 18 sec)
Heartbeat CPU 0 instructions: 480000003 cycles: 243967960 heartbeat IPC: 2.092 cumulative IPC: 1.858 (Simulation time: 04 hr 03 min 11 sec)
Heartbeat CPU 0 instructions: 490000000 cycles: 248574323 heartbeat IPC: 2.171 cumulative IPC: 1.864 (Simulation time: 04 hr 07 min 56 sec)
Heartbeat CPU 0 instructions: 500000000 cycles: 253583091 heartbeat IPC: 1.996 cumulative IPC: 1.867 (Simulation time: 04 hr 12 min 55 sec)
Heartbeat CPU 0 instructions: 510000003 cycles: 259236184 heartbeat IPC: 1.769 cumulative IPC: 1.865 (Simulation time: 04 hr 18 min 20 sec)
Heartbeat CPU 0 instructions: 520000001 cycles: 263909884 heartbeat IPC: 2.14 cumulative IPC: 1.87 (Simulation time: 04 hr 23 min 10 sec)
Heartbeat CPU 0 instructions: 530000002 cycles: 269066860 heartbeat IPC: 1.939 cumulative IPC: 1.871 (Simulation time: 04 hr 28 min 14 sec)
Heartbeat CPU 0 instructions: 540000000 cycles: 274166610 heartbeat IPC: 1.961 cumulative IPC: 1.873 (Simulation time: 04 hr 33 min 17 sec)
Heartbeat CPU 0 instructions: 550000001 cycles: 278973426 heartbeat IPC: 2.08 cumulative IPC: 1.877 (Simulation time: 04 hr 38 min 22 sec)
Heartbeat CPU 0 instructions: 560000000 cycles: 284221252 heartbeat IPC: 1.906 cumulative IPC: 1.877 (Simulation time: 04 hr 43 min 43 sec)
Heartbeat CPU 0 instructions: 570000004 cycles: 291432815 heartbeat IPC: 1.387 cumulative IPC: 1.864 (Simulation time: 04 hr 50 min 31 sec)
Heartbeat CPU 0 instructions: 580000003 cycles: 299433191 heartbeat IPC: 1.25 cumulative IPC: 1.847 (Simulation time: 04 hr 57 min 40 sec)
Heartbeat CPU 0 instructions: 590000002 cycles: 308405721 heartbeat IPC: 1.115 cumulative IPC: 1.825 (Simulation time: 05 hr 05 min 48 sec)
Heartbeat CPU 0 instructions: 600000000 cycles: 312880725 heartbeat IPC: 2.235 cumulative IPC: 1.831 (Simulation time: 05 hr 10 min 39 sec)
Heartbeat CPU 0 instructions: 610000002 cycles: 317298687 heartbeat IPC: 2.263 cumulative IPC: 1.838 (Simulation time: 05 hr 15 min 36 sec)
Heartbeat CPU 0 instructions: 620000000 cycles: 322045462 heartbeat IPC: 2.107 cumulative IPC: 1.842 (Simulation time: 05 hr 20 min 34 sec)
Heartbeat CPU 0 instructions: 630000002 cycles: 327049458 heartbeat IPC: 1.998 cumulative IPC: 1.844 (Simulation time: 05 hr 25 min 36 sec)
Heartbeat CPU 0 instructions: 640000001 cycles: 331873591 heartbeat IPC: 2.073 cumulative IPC: 1.848 (Simulation time: 05 hr 30 min 42 sec)
Heartbeat CPU 0 instructions: 650000000 cycles: 336400560 heartbeat IPC: 2.209 cumulative IPC: 1.853 (Simulation time: 05 hr 35 min 20 sec)
Simulation finished CPU 0 instructions: 600000001 cycles: 323863451 cumulative IPC: 1.853 (Simulation time: 05 hr 35 min 20 sec)
Simulation complete CPU 0 instructions: 600000001 cycles: 323863451 cumulative IPC: 1.853 (Simulation time: 05 hr 35 min 20 sec)

ChampSim completed all CPUs

=== Simulation ===
CPU 0 runs traces/400.perlbench-41B.champsimtrace.xz
Region of Interest Statistics

CPU 0 cumulative IPC: 1.853 instructions: 600000001 cycles: 323863451
CPU 0 Branch Prediction Accuracy: 93.95% MPKI: 12.5 Average ROB Occupancy at Mispredict: 29.45
Branch type MPKI
BRANCH_DIRECT_JUMP: 0.0123
BRANCH_INDIRECT: 0.323
BRANCH_CONDITIONAL: 12
BRANCH_DIRECT_CALL: 0.0043
BRANCH_INDIRECT_CALL: 0.2
BRANCH_RETURN: 0.00828

LLC TOTAL        ACCESS:     595487 HIT:     452732 MISS:     142755
LLC LOAD         ACCESS:     403541 HIT:     302220 MISS:     101321
LLC RFO          ACCESS:      32555 HIT:      23830 MISS:       8725
LLC PREFETCH     ACCESS:      54521 HIT:      42265 MISS:      12256
LLC WRITE        ACCESS:      85625 HIT:      76482 MISS:       9143
LLC TRANSLATION  ACCESS:      19245 HIT:       7935 MISS:      11310
LLC PREFETCH REQUESTED:      54521 ISSUED:      54521 USEFUL:       7435 USELESS:       3525
LLC AVERAGE MISS LATENCY: 505.6 cycles
cpu0_DTLB TOTAL        ACCESS:  153683085 HIT:  153005863 MISS:     677222
cpu0_DTLB LOAD         ACCESS:  153683085 HIT:  153005863 MISS:     677222
cpu0_DTLB RFO          ACCESS:          0 HIT:          0 MISS:          0
cpu0_DTLB PREFETCH     ACCESS:          0 HIT:          0 MISS:          0
cpu0_DTLB WRITE        ACCESS:          0 HIT:          0 MISS:          0
cpu0_DTLB TRANSLATION  ACCESS:          0 HIT:          0 MISS:          0
cpu0_DTLB PREFETCH REQUESTED:          0 ISSUED:          0 USEFUL:          0 USELESS:          0
cpu0_DTLB AVERAGE MISS LATENCY: 15.22 cycles
cpu0_ITLB TOTAL        ACCESS:    4839217 HIT:    4781368 MISS:      57849
cpu0_ITLB LOAD         ACCESS:    4839217 HIT:    4781368 MISS:      57849
cpu0_ITLB RFO          ACCESS:          0 HIT:          0 MISS:          0
cpu0_ITLB PREFETCH     ACCESS:          0 HIT:          0 MISS:          0
cpu0_ITLB WRITE        ACCESS:          0 HIT:          0 MISS:          0
cpu0_ITLB TRANSLATION  ACCESS:          0 HIT:          0 MISS:          0
cpu0_ITLB PREFETCH REQUESTED:          0 ISSUED:          0 USEFUL:          0 USELESS:          0
cpu0_ITLB AVERAGE MISS LATENCY: 5.584 cycles
cpu0_L1D TOTAL        ACCESS:  200304347 HIT:  198615955 MISS:    1688392
cpu0_L1D LOAD         ACCESS:  117061329 HIT:  115744496 MISS:    1316833
cpu0_L1D RFO          ACCESS:          0 HIT:          0 MISS:          0
cpu0_L1D PREFETCH     ACCESS:          0 HIT:          0 MISS:          0
cpu0_L1D WRITE        ACCESS:   83218553 HIT:   82870423 MISS:     348130
cpu0_L1D TRANSLATION  ACCESS:      24465 HIT:       1036 MISS:      23429
cpu0_L1D PREFETCH REQUESTED:          0 ISSUED:          0 USEFUL:          0 USELESS:          0
cpu0_L1D AVERAGE MISS LATENCY: 43.94 cycles
cpu0_L1I TOTAL        ACCESS:    5581354 HIT:    4820056 MISS:     761298
cpu0_L1I LOAD         ACCESS:    5581354 HIT:    4820056 MISS:     761298
cpu0_L1I RFO          ACCESS:          0 HIT:          0 MISS:          0
cpu0_L1I PREFETCH     ACCESS:          0 HIT:          0 MISS:          0
cpu0_L1I WRITE        ACCESS:          0 HIT:          0 MISS:          0
cpu0_L1I TRANSLATION  ACCESS:          0 HIT:          0 MISS:          0
cpu0_L1I PREFETCH REQUESTED:          0 ISSUED:          0 USEFUL:          0 USELESS:          0
cpu0_L1I AVERAGE MISS LATENCY: 13.87 cycles
cpu0_L2C TOTAL        ACCESS:    1667956 HIT:    1210800 MISS:     457156
cpu0_L2C LOAD         ACCESS:    1317142 HIT:     913601 MISS:     403541
cpu0_L2C RFO          ACCESS:      88580 HIT:      56025 MISS:      32555
cpu0_L2C PREFETCH     ACCESS:          0 HIT:          0 MISS:          0
cpu0_L2C WRITE        ACCESS:     238887 HIT:     237072 MISS:       1815
cpu0_L2C TRANSLATION  ACCESS:      23347 HIT:       4102 MISS:      19245
cpu0_L2C PREFETCH REQUESTED:          0 ISSUED:          0 USEFUL:          0 USELESS:          0
cpu0_L2C AVERAGE MISS LATENCY: 160.8 cycles
cpu0_STLB TOTAL        ACCESS:     505093 HIT:     482303 MISS:      22790
cpu0_STLB LOAD         ACCESS:     505093 HIT:     482303 MISS:      22790
cpu0_STLB RFO          ACCESS:          0 HIT:          0 MISS:          0
cpu0_STLB PREFETCH     ACCESS:          0 HIT:          0 MISS:          0
cpu0_STLB WRITE        ACCESS:          0 HIT:          0 MISS:          0
cpu0_STLB TRANSLATION  ACCESS:          0 HIT:          0 MISS:          0
cpu0_STLB PREFETCH REQUESTED:          0 ISSUED:          0 USEFUL:          0 USELESS:          0
cpu0_STLB AVERAGE MISS LATENCY: 324.6 cycles

DRAM Statistics

Channel 0 RQ ROW_BUFFER_HIT:      21908
  ROW_BUFFER_MISS:     110312
 AVG DBUS CONGESTED CYCLE: 3.786
WQ ROW_BUFFER_HIT: Channel 0 
  ROW_BUFFER_MISS:       6254
  FULL:      13231
