WARNING: physical memory size is smaller than virtual memory size.

*** ChampSim Multicore Out-of-Order Simulator ***
Warmup Instructions: 50000000
Simulation Instructions: 600000000
Number of CPUs: 1
Page size: 4096

Off-chip DRAM Size: 4 GiB Channels: 1 Width: 64-bit Data Race: 3200 MT/s
Heartbeat CPU 0 instructions: 10000001 cycles: 2500318 heartbeat IPC: 3.999 cumulative IPC: 3.999 (Simulation time: 00 hr 00 min 41 sec)
Heartbeat CPU 0 instructions: 20000002 cycles: 5037114 heartbeat IPC: 3.942 cumulative IPC: 3.971 (Simulation time: 00 hr 01 min 28 sec)
Heartbeat CPU 0 instructions: 30000002 cycles: 7537114 heartbeat IPC: 4 cumulative IPC: 3.98 (Simulation time: 00 hr 02 min 13 sec)
Heartbeat CPU 0 instructions: 40000002 cycles: 10037114 heartbeat IPC: 4 cumulative IPC: 3.985 (Simulation time: 00 hr 03 min 02 sec)
Heartbeat CPU 0 instructions: 50000002 cycles: 12537114 heartbeat IPC: 4 cumulative IPC: 3.988 (Simulation time: 00 hr 03 min 46 sec)
Warmup finished CPU 0 instructions: 50000002 cycles: 12537115 cumulative IPC: 3.988 (Simulation time: 00 hr 03 min 46 sec)
Warmup complete CPU 0 instructions: 50000002 cycles: 12537115 cumulative IPC: 3.988 (Simulation time: 00 hr 03 min 46 sec)
Heartbeat CPU 0 instructions: 60000000 cycles: 17701415 heartbeat IPC: 1.936 cumulative IPC: 1.936 (Simulation time: 00 hr 04 min 56 sec)
Heartbeat CPU 0 instructions: 70000002 cycles: 22587510 heartbeat IPC: 2.047 cumulative IPC: 1.99 (Simulation time: 00 hr 06 min 04 sec)
Heartbeat CPU 0 instructions: 80000001 cycles: 27941104 heartbeat IPC: 1.868 cumulative IPC: 1.948 (Simulation time: 00 hr 07 min 15 sec)
Heartbeat CPU 0 instructions: 90000001 cycles: 32804927 heartbeat IPC: 2.056 cumulative IPC: 1.974 (Simulation time: 00 hr 08 min 23 sec)
Heartbeat CPU 0 instructions: 100000000 cycles: 37906590 heartbeat IPC: 1.96 cumulative IPC: 1.971 (Simulation time: 00 hr 09 min 32 sec)
Heartbeat CPU 0 instructions: 110000000 cycles: 42779200 heartbeat IPC: 2.052 cumulative IPC: 1.984 (Simulation time: 00 hr 10 min 39 sec)
Heartbeat CPU 0 instructions: 120000001 cycles: 47964866 heartbeat IPC: 1.928 cumulative IPC: 1.976 (Simulation time: 00 hr 11 min 50 sec)
Heartbeat CPU 0 instructions: 130000001 cycles: 53111063 heartbeat IPC: 1.943 cumulative IPC: 1.972 (Simulation time: 00 hr 13 min 03 sec)
Heartbeat CPU 0 instructions: 140000001 cycles: 58412564 heartbeat IPC: 1.886 cumulative IPC: 1.962 (Simulation time: 00 hr 14 min 13 sec)
Heartbeat CPU 0 instructions: 150000001 cycles: 63719552 heartbeat IPC: 1.884 cumulative IPC: 1.954 (Simulation time: 00 hr 15 min 24 sec)
Heartbeat CPU 0 instructions: 160000004 cycles: 68915159 heartbeat IPC: 1.925 cumulative IPC: 1.951 (Simulation time: 00 hr 16 min 36 sec)
Heartbeat CPU 0 instructions: 170000000 cycles: 78436190 heartbeat IPC: 1.05 cumulative IPC: 1.821 (Simulation time: 00 hr 18 min 23 sec)
Heartbeat CPU 0 instructions: 180000004 cycles: 88216713 heartbeat IPC: 1.022 cumulative IPC: 1.718 (Simulation time: 00 hr 20 min 12 sec)
Heartbeat CPU 0 instructions: 190000001 cycles: 98276742 heartbeat IPC: 0.994 cumulative IPC: 1.633 (Simulation time: 00 hr 22 min 02 sec)
Heartbeat CPU 0 instructions: 200000003 cycles: 103040155 heartbeat IPC: 2.099 cumulative IPC: 1.657 (Simulation time: 00 hr 23 min 11 sec)
Heartbeat CPU 0 instructions: 210000001 cycles: 107957024 heartbeat IPC: 2.034 cumulative IPC: 1.677 (Simulation time: 00 hr 24 min 20 sec)
Heartbeat CPU 0 instructions: 220000000 cycles: 112784643 heartbeat IPC: 2.071 cumulative IPC: 1.696 (Simulation time: 00 hr 25 min 32 sec)
Heartbeat CPU 0 instructions: 230000002 cycles: 118101909 heartbeat IPC: 1.881 cumulative IPC: 1.705 (Simulation time: 00 hr 26 min 46 sec)
Heartbeat CPU 0 instructions: 240000000 cycles: 122938338 heartbeat IPC: 2.068 cumulative IPC: 1.721 (Simulation time: 00 hr 27 min 55 sec)
Heartbeat CPU 0 instructions: 250000000 cycles: 128083736 heartbeat IPC: 1.943 cumulative IPC: 1.731 (Simulation time: 00 hr 29 min 09 sec)
Heartbeat CPU 0 instructions: 260000000 cycles: 133094356 heartbeat IPC: 1.996 cumulative IPC: 1.742 (Simulation time: 00 hr 30 min 18 sec)
Heartbeat CPU 0 instructions: 270000002 cycles: 137972096 heartbeat IPC: 2.05 cumulative IPC: 1.754 (Simulation time: 00 hr 31 min 25 sec)
Heartbeat CPU 0 instructions: 280000002 cycles: 142869109 heartbeat IPC: 2.042 cumulative IPC: 1.765 (Simulation time: 00 hr 32 min 36 sec)
Heartbeat CPU 0 instructions: 290000001 cycles: 148233938 heartbeat IPC: 1.864 cumulative IPC: 1.769 (Simulation time: 00 hr 33 min 47 sec)
Heartbeat CPU 0 instructions: 300000003 cycles: 153284079 heartbeat IPC: 1.98 cumulative IPC: 1.776 (Simulation time: 00 hr 34 min 57 sec)
Heartbeat CPU 0 instructions: 310000001 cycles: 158569397 heartbeat IPC: 1.892 cumulative IPC: 1.78 (Simulation time: 00 hr 36 min 09 sec)
Heartbeat CPU 0 instructions: 320000003 cycles: 163772731 heartbeat IPC: 1.922 cumulative IPC: 1.785 (Simulation time: 00 hr 37 min 19 sec)
Heartbeat CPU 0 instructions: 330000003 cycles: 169055180 heartbeat IPC: 1.893 cumulative IPC: 1.789 (Simulation time: 00 hr 38 min 30 sec)
Heartbeat CPU 0 instructions: 340000000 cycles: 178777865 heartbeat IPC: 1.029 cumulative IPC: 1.744 (Simulation time: 00 hr 40 min 17 sec)
Heartbeat CPU 0 instructions: 350000000 cycles: 188983780 heartbeat IPC: 0.9798 cumulative IPC: 1.7 (Simulation time: 00 hr 42 min 07 sec)
Heartbeat CPU 0 instructions: 360000004 cycles: 198980130 heartbeat IPC: 1 cumulative IPC: 1.663 (Simulation time: 00 hr 43 min 53 sec)
Heartbeat CPU 0 instructions: 370000000 cycles: 203382272 heartbeat IPC: 2.272 cumulative IPC: 1.677 (Simulation time: 00 hr 45 min 01 sec)
Heartbeat CPU 0 instructions: 380000001 cycles: 208308140 heartbeat IPC: 2.03 cumulative IPC: 1.686 (Simulation time: 00 hr 46 min 09 sec)
Heartbeat CPU 0 instructions: 390000002 cycles: 213125779 heartbeat IPC: 2.076 cumulative IPC: 1.695 (Simulation time: 00 hr 47 min 16 sec)
Heartbeat CPU 0 instructions: 400000004 cycles: 218056834 heartbeat IPC: 2.028 cumulative IPC: 1.703 (Simulation time: 00 hr 48 min 23 sec)
Heartbeat CPU 0 instructions: 410000000 cycles: 222779633 heartbeat IPC: 2.117 cumulative IPC: 1.712 (Simulation time: 00 hr 49 min 29 sec)
Heartbeat CPU 0 instructions: 420000000 cycles: 227862443 heartbeat IPC: 1.967 cumulative IPC: 1.718 (Simulation time: 00 hr 50 min 39 sec)
Heartbeat CPU 0 instructions: 430000001 cycles: 232319980 heartbeat IPC: 2.243 cumulative IPC: 1.729 (Simulation time: 00 hr 51 min 42 sec)
Heartbeat CPU 0 instructions: 440000000 cycles: 237657057 heartbeat IPC: 1.874 cumulative IPC: 1.732 (Simulation time: 00 hr 52 min 47 sec)
Heartbeat CPU 0 instructions: 450000002 cycles: 242314452 heartbeat IPC: 2.147 cumulative IPC: 1.741 (Simulation time: 00 hr 53 min 49 sec)
Heartbeat CPU 0 instructions: 460000000 cycles: 247090095 heartbeat IPC: 2.094 cumulative IPC: 1.748 (Simulation time: 00 hr 54 min 51 sec)
Heartbeat CPU 0 instructions: 470000000 cycles: 252058188 heartbeat IPC: 2.013 cumulative IPC: 1.753 (Simulation time: 00 hr 55 min 55 sec)
Heartbeat CPU 0 instructions: 480000003 cycles: 256817783 heartbeat IPC: 2.101 cumulative IPC: 1.76 (Simulation time: 00 hr 57 min 00 sec)
Heartbeat CPU 0 instructions: 490000000 cycles: 261413055 heartbeat IPC: 2.176 cumulative IPC: 1.768 (Simulation time: 00 hr 58 min 02 sec)
Heartbeat CPU 0 instructions: 500000000 cycles: 266427137 heartbeat IPC: 1.994 cumulative IPC: 1.772 (Simulation time: 00 hr 59 min 06 sec)
Heartbeat CPU 0 instructions: 510000003 cycles: 272025252 heartbeat IPC: 1.786 cumulative IPC: 1.773 (Simulation time: 01 hr 00 min 13 sec)
Heartbeat CPU 0 instructions: 520000001 cycles: 276701617 heartbeat IPC: 2.138 cumulative IPC: 1.779 (Simulation time: 01 hr 01 min 16 sec)
Heartbeat CPU 0 instructions: 530000002 cycles: 281822601 heartbeat IPC: 1.953 cumulative IPC: 1.782 (Simulation time: 01 hr 02 min 20 sec)
Heartbeat CPU 0 instructions: 540000000 cycles: 286927200 heartbeat IPC: 1.959 cumulative IPC: 1.786 (Simulation time: 01 hr 03 min 24 sec)
Heartbeat CPU 0 instructions: 550000001 cycles: 291723588 heartbeat IPC: 2.085 cumulative IPC: 1.791 (Simulation time: 01 hr 04 min 27 sec)
Heartbeat CPU 0 instructions: 560000000 cycles: 296910897 heartbeat IPC: 1.928 cumulative IPC: 1.793 (Simulation time: 01 hr 05 min 31 sec)
Heartbeat CPU 0 instructions: 570000004 cycles: 303669135 heartbeat IPC: 1.48 cumulative IPC: 1.786 (Simulation time: 01 hr 06 min 53 sec)
Heartbeat CPU 0 instructions: 580000003 cycles: 314437374 heartbeat IPC: 0.9287 cumulative IPC: 1.756 (Simulation time: 01 hr 08 min 54 sec)
Heartbeat CPU 0 instructions: 590000002 cycles: 326564469 heartbeat IPC: 0.8246 cumulative IPC: 1.72 (Simulation time: 01 hr 11 min 12 sec)
Heartbeat CPU 0 instructions: 600000000 cycles: 331093276 heartbeat IPC: 2.208 cumulative IPC: 1.727 (Simulation time: 01 hr 12 min 22 sec)
Heartbeat CPU 0 instructions: 610000002 cycles: 335579767 heartbeat IPC: 2.229 cumulative IPC: 1.734 (Simulation time: 01 hr 13 min 33 sec)
Heartbeat CPU 0 instructions: 620000000 cycles: 340383674 heartbeat IPC: 2.082 cumulative IPC: 1.739 (Simulation time: 01 hr 14 min 45 sec)
Heartbeat CPU 0 instructions: 630000002 cycles: 345465684 heartbeat IPC: 1.968 cumulative IPC: 1.742 (Simulation time: 01 hr 15 min 57 sec)
Heartbeat CPU 0 instructions: 640000001 cycles: 350315369 heartbeat IPC: 2.062 cumulative IPC: 1.747 (Simulation time: 01 hr 17 min 08 sec)
Heartbeat CPU 0 instructions: 650000000 cycles: 354868354 heartbeat IPC: 2.196 cumulative IPC: 1.753 (Simulation time: 01 hr 18 min 21 sec)
Simulation finished CPU 0 instructions: 600000001 cycles: 342331241 cumulative IPC: 1.753 (Simulation time: 01 hr 18 min 21 sec)
Simulation complete CPU 0 instructions: 600000001 cycles: 342331241 cumulative IPC: 1.753 (Simulation time: 01 hr 18 min 21 sec)

ChampSim completed all CPUs

=== Simulation ===
CPU 0 runs traces/400.perlbench-41B.champsimtrace.xz
Region of Interest Statistics

CPU 0 cumulative IPC: 1.753 instructions: 600000001 cycles: 342331241
CPU 0 Branch Prediction Accuracy: 93.95% MPKI: 12.5 Average ROB Occupancy at Mispredict: 29.5
Branch type MPKI
BRANCH_DIRECT_JUMP: 0.0123
BRANCH_INDIRECT: 0.323
BRANCH_CONDITIONAL: 12
BRANCH_DIRECT_CALL: 0.0043
BRANCH_INDIRECT_CALL: 0.2
BRANCH_RETURN: 0.00828

LLC TOTAL        ACCESS:     940142 HIT:     552842 MISS:     387300
LLC LOAD         ACCESS:     401361 HIT:     225111 MISS:     176250
LLC RFO          ACCESS:      32867 HIT:      19132 MISS:      13735
LLC PREFETCH     ACCESS:     401361 HIT:     213642 MISS:     187719
LLC WRITE        ACCESS:      85516 HIT:      85369 MISS:        147
LLC TRANSLATION  ACCESS:      19037 HIT:       9588 MISS:       9449
LLC PREFETCH REQUESTED:     401361 ISSUED:     401361 USEFUL:      69336 USELESS:      70110
LLC AVERAGE MISS LATENCY: 566.7 cycles
cpu0_DTLB TOTAL        ACCESS:  153686304 HIT:  153009080 MISS:     677224
cpu0_DTLB LOAD         ACCESS:  153686304 HIT:  153009080 MISS:     677224
cpu0_DTLB RFO          ACCESS:          0 HIT:          0 MISS:          0
cpu0_DTLB PREFETCH     ACCESS:          0 HIT:          0 MISS:          0
cpu0_DTLB WRITE        ACCESS:          0 HIT:          0 MISS:          0
cpu0_DTLB TRANSLATION  ACCESS:          0 HIT:          0 MISS:          0
cpu0_DTLB PREFETCH REQUESTED:          0 ISSUED:          0 USEFUL:          0 USELESS:          0
cpu0_DTLB AVERAGE MISS LATENCY: 15.52 cycles
cpu0_ITLB TOTAL        ACCESS:    4835246 HIT:    4777350 MISS:      57896
cpu0_ITLB LOAD         ACCESS:    4835246 HIT:    4777350 MISS:      57896
cpu0_ITLB RFO          ACCESS:          0 HIT:          0 MISS:          0
cpu0_ITLB PREFETCH     ACCESS:          0 HIT:          0 MISS:          0
cpu0_ITLB WRITE        ACCESS:          0 HIT:          0 MISS:          0
cpu0_ITLB TRANSLATION  ACCESS:          0 HIT:          0 MISS:          0
cpu0_ITLB PREFETCH REQUESTED:          0 ISSUED:          0 USEFUL:          0 USELESS:          0
cpu0_ITLB AVERAGE MISS LATENCY: 7.527 cycles
cpu0_L1D TOTAL        ACCESS:  200304154 HIT:  198570208 MISS:    1733946
cpu0_L1D LOAD         ACCESS:  117061880 HIT:  115711660 MISS:    1350220
cpu0_L1D RFO          ACCESS:          0 HIT:          0 MISS:          0
cpu0_L1D PREFETCH     ACCESS:          0 HIT:          0 MISS:          0
cpu0_L1D WRITE        ACCESS:   83217815 HIT:   82857513 MISS:     360302
cpu0_L1D TRANSLATION  ACCESS:      24459 HIT:       1035 MISS:      23424
cpu0_L1D PREFETCH REQUESTED:          0 ISSUED:          0 USEFUL:          0 USELESS:          0
cpu0_L1D AVERAGE MISS LATENCY: 77.02 cycles
cpu0_L1I TOTAL        ACCESS:    5577818 HIT:    4816238 MISS:     761580
cpu0_L1I LOAD         ACCESS:    5577818 HIT:    4816238 MISS:     761580
cpu0_L1I RFO          ACCESS:          0 HIT:          0 MISS:          0
cpu0_L1I PREFETCH     ACCESS:          0 HIT:          0 MISS:          0
cpu0_L1I WRITE        ACCESS:          0 HIT:          0 MISS:          0
cpu0_L1I TRANSLATION  ACCESS:          0 HIT:          0 MISS:          0
cpu0_L1I PREFETCH REQUESTED:          0 ISSUED:          0 USEFUL:          0 USELESS:          0
cpu0_L1I AVERAGE MISS LATENCY: 11.12 cycles
cpu0_L2C TOTAL        ACCESS:    1667933 HIT:    1212844 MISS:     455089
cpu0_L2C LOAD         ACCESS:    1317089 HIT:     915728 MISS:     401361
cpu0_L2C RFO          ACCESS:      88624 HIT:      55757 MISS:      32867
cpu0_L2C PREFETCH     ACCESS:          0 HIT:          0 MISS:          0
cpu0_L2C WRITE        ACCESS:     238876 HIT:     237052 MISS:       1824
cpu0_L2C TRANSLATION  ACCESS:      23344 HIT:       4307 MISS:      19037
cpu0_L2C PREFETCH REQUESTED:          0 ISSUED:          0 USEFUL:          0 USELESS:          0
cpu0_L2C AVERAGE MISS LATENCY: 290.3 cycles
cpu0_STLB TOTAL        ACCESS:     505190 HIT:     482400 MISS:      22790
cpu0_STLB LOAD         ACCESS:     505190 HIT:     482400 MISS:      22790
cpu0_STLB RFO          ACCESS:          0 HIT:          0 MISS:          0
cpu0_STLB PREFETCH     ACCESS:          0 HIT:          0 MISS:          0
cpu0_STLB WRITE        ACCESS:          0 HIT:          0 MISS:          0
cpu0_STLB TRANSLATION  ACCESS:          0 HIT:          0 MISS:          0
cpu0_STLB PREFETCH REQUESTED:          0 ISSUED:          0 USEFUL:          0 USELESS:          0
cpu0_STLB AVERAGE MISS LATENCY: 339.1 cycles

DRAM Statistics

Channel 0 RQ ROW_BUFFER_HIT:      61384
  ROW_BUFFER_MISS:     265336
 AVG DBUS CONGESTED CYCLE: 3.862
WQ ROW_BUFFER_HIT: Channel 0 
  ROW_BUFFER_MISS:       5649
  FULL:      33704
