WARNING: physical memory size is smaller than virtual memory size.

*** ChampSim Multicore Out-of-Order Simulator ***
Warmup Instructions: 50000000
Simulation Instructions: 600000000
Number of CPUs: 1
Page size: 4096

CPU 0 Tage branch predictor
Off-chip DRAM Size: 4 GiB Channels: 1 Width: 64-bit Data Race: 3200 MT/s
Heartbeat CPU 0 instructions: 10000001 cycles: 2500318 heartbeat IPC: 3.999 cumulative IPC: 3.999 (Simulation time: 00 hr 00 min 45 sec)
Heartbeat CPU 0 instructions: 20000002 cycles: 5037108 heartbeat IPC: 3.942 cumulative IPC: 3.971 (Simulation time: 00 hr 01 min 35 sec)
Heartbeat CPU 0 instructions: 30000002 cycles: 7537108 heartbeat IPC: 4 cumulative IPC: 3.98 (Simulation time: 00 hr 02 min 14 sec)
Heartbeat CPU 0 instructions: 40000002 cycles: 10037108 heartbeat IPC: 4 cumulative IPC: 3.985 (Simulation time: 00 hr 02 min 58 sec)
Heartbeat CPU 0 instructions: 50000002 cycles: 12537108 heartbeat IPC: 4 cumulative IPC: 3.988 (Simulation time: 00 hr 03 min 38 sec)
Warmup finished CPU 0 instructions: 50000002 cycles: 12537109 cumulative IPC: 3.988 (Simulation time: 00 hr 03 min 38 sec)
Warmup complete CPU 0 instructions: 50000002 cycles: 12537109 cumulative IPC: 3.988 (Simulation time: 00 hr 03 min 38 sec)
Heartbeat CPU 0 instructions: 60000001 cycles: 15507973 heartbeat IPC: 3.366 cumulative IPC: 3.366 (Simulation time: 00 hr 04 min 26 sec)
Heartbeat CPU 0 instructions: 70000004 cycles: 18578731 heartbeat IPC: 3.257 cumulative IPC: 3.31 (Simulation time: 00 hr 05 min 18 sec)
Heartbeat CPU 0 instructions: 80000001 cycles: 21622189 heartbeat IPC: 3.286 cumulative IPC: 3.302 (Simulation time: 00 hr 06 min 07 sec)
Heartbeat CPU 0 instructions: 90000001 cycles: 24563634 heartbeat IPC: 3.4 cumulative IPC: 3.326 (Simulation time: 00 hr 06 min 55 sec)
Heartbeat CPU 0 instructions: 100000000 cycles: 27471421 heartbeat IPC: 3.439 cumulative IPC: 3.348 (Simulation time: 00 hr 07 min 43 sec)
Heartbeat CPU 0 instructions: 110000000 cycles: 30415927 heartbeat IPC: 3.396 cumulative IPC: 3.356 (Simulation time: 00 hr 08 min 30 sec)
Heartbeat CPU 0 instructions: 120000001 cycles: 33384109 heartbeat IPC: 3.369 cumulative IPC: 3.358 (Simulation time: 00 hr 09 min 19 sec)
Heartbeat CPU 0 instructions: 130000001 cycles: 36233475 heartbeat IPC: 3.51 cumulative IPC: 3.376 (Simulation time: 00 hr 10 min 09 sec)
Heartbeat CPU 0 instructions: 140000001 cycles: 39266049 heartbeat IPC: 3.298 cumulative IPC: 3.367 (Simulation time: 00 hr 10 min 57 sec)
Heartbeat CPU 0 instructions: 150000001 cycles: 42267468 heartbeat IPC: 3.332 cumulative IPC: 3.364 (Simulation time: 00 hr 11 min 45 sec)
Heartbeat CPU 0 instructions: 160000004 cycles: 45265352 heartbeat IPC: 3.336 cumulative IPC: 3.361 (Simulation time: 00 hr 12 min 33 sec)
Heartbeat CPU 0 instructions: 170000004 cycles: 52101012 heartbeat IPC: 1.463 cumulative IPC: 3.033 (Simulation time: 00 hr 13 min 42 sec)
Heartbeat CPU 0 instructions: 180000004 cycles: 58713553 heartbeat IPC: 1.512 cumulative IPC: 2.815 (Simulation time: 00 hr 14 min 52 sec)
Heartbeat CPU 0 instructions: 190000001 cycles: 65118409 heartbeat IPC: 1.561 cumulative IPC: 2.663 (Simulation time: 00 hr 16 min 02 sec)
Heartbeat CPU 0 instructions: 200000004 cycles: 68015904 heartbeat IPC: 3.451 cumulative IPC: 2.704 (Simulation time: 00 hr 16 min 49 sec)
Heartbeat CPU 0 instructions: 210000001 cycles: 70925487 heartbeat IPC: 3.437 cumulative IPC: 2.74 (Simulation time: 00 hr 17 min 38 sec)
Heartbeat CPU 0 instructions: 220000000 cycles: 73788472 heartbeat IPC: 3.493 cumulative IPC: 2.775 (Simulation time: 00 hr 18 min 28 sec)
Heartbeat CPU 0 instructions: 230000002 cycles: 76758656 heartbeat IPC: 3.367 cumulative IPC: 2.803 (Simulation time: 00 hr 19 min 17 sec)
Heartbeat CPU 0 instructions: 240000003 cycles: 79753592 heartbeat IPC: 3.339 cumulative IPC: 2.827 (Simulation time: 00 hr 20 min 06 sec)
Heartbeat CPU 0 instructions: 250000000 cycles: 82743855 heartbeat IPC: 3.344 cumulative IPC: 2.849 (Simulation time: 00 hr 20 min 54 sec)
Heartbeat CPU 0 instructions: 260000002 cycles: 85679450 heartbeat IPC: 3.406 cumulative IPC: 2.871 (Simulation time: 00 hr 21 min 41 sec)
Heartbeat CPU 0 instructions: 270000002 cycles: 88562698 heartbeat IPC: 3.468 cumulative IPC: 2.894 (Simulation time: 00 hr 22 min 27 sec)
Heartbeat CPU 0 instructions: 280000002 cycles: 91427641 heartbeat IPC: 3.49 cumulative IPC: 2.915 (Simulation time: 00 hr 23 min 14 sec)
Heartbeat CPU 0 instructions: 290000002 cycles: 94365919 heartbeat IPC: 3.403 cumulative IPC: 2.933 (Simulation time: 00 hr 24 min 01 sec)
Heartbeat CPU 0 instructions: 300000003 cycles: 97227674 heartbeat IPC: 3.494 cumulative IPC: 2.952 (Simulation time: 00 hr 24 min 48 sec)
Heartbeat CPU 0 instructions: 310000001 cycles: 100219696 heartbeat IPC: 3.342 cumulative IPC: 2.965 (Simulation time: 00 hr 25 min 36 sec)
Heartbeat CPU 0 instructions: 320000003 cycles: 103200527 heartbeat IPC: 3.355 cumulative IPC: 2.978 (Simulation time: 00 hr 26 min 23 sec)
Heartbeat CPU 0 instructions: 330000003 cycles: 106145987 heartbeat IPC: 3.395 cumulative IPC: 2.991 (Simulation time: 00 hr 27 min 11 sec)
Heartbeat CPU 0 instructions: 340000000 cycles: 112978271 heartbeat IPC: 1.464 cumulative IPC: 2.887 (Simulation time: 00 hr 28 min 25 sec)
Heartbeat CPU 0 instructions: 350000000 cycles: 120140393 heartbeat IPC: 1.396 cumulative IPC: 2.788 (Simulation time: 00 hr 29 min 42 sec)
Heartbeat CPU 0 instructions: 360000004 cycles: 127178306 heartbeat IPC: 1.421 cumulative IPC: 2.704 (Simulation time: 00 hr 30 min 57 sec)
Heartbeat CPU 0 instructions: 370000000 cycles: 130112410 heartbeat IPC: 3.408 cumulative IPC: 2.722 (Simulation time: 00 hr 31 min 45 sec)
Heartbeat CPU 0 instructions: 380000003 cycles: 132998439 heartbeat IPC: 3.465 cumulative IPC: 2.739 (Simulation time: 00 hr 32 min 30 sec)
Heartbeat CPU 0 instructions: 390000002 cycles: 135951899 heartbeat IPC: 3.386 cumulative IPC: 2.755 (Simulation time: 00 hr 33 min 18 sec)
Heartbeat CPU 0 instructions: 400000004 cycles: 138840892 heartbeat IPC: 3.461 cumulative IPC: 2.771 (Simulation time: 00 hr 34 min 04 sec)
Heartbeat CPU 0 instructions: 410000002 cycles: 141747872 heartbeat IPC: 3.44 cumulative IPC: 2.786 (Simulation time: 00 hr 34 min 53 sec)
Heartbeat CPU 0 instructions: 420000003 cycles: 144789636 heartbeat IPC: 3.288 cumulative IPC: 2.798 (Simulation time: 00 hr 35 min 40 sec)
Heartbeat CPU 0 instructions: 430000001 cycles: 147775464 heartbeat IPC: 3.349 cumulative IPC: 2.81 (Simulation time: 00 hr 36 min 28 sec)
Heartbeat CPU 0 instructions: 440000004 cycles: 150880679 heartbeat IPC: 3.22 cumulative IPC: 2.819 (Simulation time: 00 hr 37 min 15 sec)
Heartbeat CPU 0 instructions: 450000002 cycles: 153787285 heartbeat IPC: 3.44 cumulative IPC: 2.832 (Simulation time: 00 hr 38 min 02 sec)
Heartbeat CPU 0 instructions: 460000000 cycles: 156702894 heartbeat IPC: 3.43 cumulative IPC: 2.844 (Simulation time: 00 hr 38 min 49 sec)
Heartbeat CPU 0 instructions: 470000001 cycles: 159538613 heartbeat IPC: 3.526 cumulative IPC: 2.857 (Simulation time: 00 hr 39 min 35 sec)
Heartbeat CPU 0 instructions: 480000003 cycles: 162571476 heartbeat IPC: 3.297 cumulative IPC: 2.866 (Simulation time: 00 hr 40 min 23 sec)
Heartbeat CPU 0 instructions: 490000004 cycles: 165391574 heartbeat IPC: 3.546 cumulative IPC: 2.879 (Simulation time: 00 hr 41 min 12 sec)
Heartbeat CPU 0 instructions: 500000004 cycles: 168366150 heartbeat IPC: 3.362 cumulative IPC: 2.888 (Simulation time: 00 hr 42 min 01 sec)
Heartbeat CPU 0 instructions: 510000003 cycles: 171370073 heartbeat IPC: 3.329 cumulative IPC: 2.896 (Simulation time: 00 hr 42 min 51 sec)
Heartbeat CPU 0 instructions: 520000001 cycles: 174241225 heartbeat IPC: 3.483 cumulative IPC: 2.907 (Simulation time: 00 hr 43 min 39 sec)
Heartbeat CPU 0 instructions: 530000001 cycles: 177240324 heartbeat IPC: 3.334 cumulative IPC: 2.914 (Simulation time: 00 hr 44 min 26 sec)
Heartbeat CPU 0 instructions: 540000000 cycles: 180175057 heartbeat IPC: 3.407 cumulative IPC: 2.923 (Simulation time: 00 hr 45 min 13 sec)
Heartbeat CPU 0 instructions: 550000001 cycles: 183140373 heartbeat IPC: 3.372 cumulative IPC: 2.931 (Simulation time: 00 hr 46 min 01 sec)
Heartbeat CPU 0 instructions: 560000000 cycles: 186243242 heartbeat IPC: 3.223 cumulative IPC: 2.936 (Simulation time: 00 hr 46 min 48 sec)
Heartbeat CPU 0 instructions: 570000004 cycles: 191125568 heartbeat IPC: 2.048 cumulative IPC: 2.912 (Simulation time: 00 hr 47 min 48 sec)
Heartbeat CPU 0 instructions: 580000003 cycles: 199014110 heartbeat IPC: 1.268 cumulative IPC: 2.842 (Simulation time: 00 hr 49 min 08 sec)
Heartbeat CPU 0 instructions: 590000002 cycles: 207924092 heartbeat IPC: 1.122 cumulative IPC: 2.764 (Simulation time: 00 hr 50 min 33 sec)
Heartbeat CPU 0 instructions: 600000004 cycles: 210926540 heartbeat IPC: 3.331 cumulative IPC: 2.772 (Simulation time: 00 hr 51 min 19 sec)
Heartbeat CPU 0 instructions: 610000002 cycles: 213863620 heartbeat IPC: 3.405 cumulative IPC: 2.782 (Simulation time: 00 hr 52 min 06 sec)
Heartbeat CPU 0 instructions: 620000001 cycles: 216615730 heartbeat IPC: 3.634 cumulative IPC: 2.793 (Simulation time: 00 hr 52 min 51 sec)
Heartbeat CPU 0 instructions: 630000002 cycles: 219564789 heartbeat IPC: 3.391 cumulative IPC: 2.802 (Simulation time: 00 hr 53 min 36 sec)
Heartbeat CPU 0 instructions: 640000004 cycles: 222501704 heartbeat IPC: 3.405 cumulative IPC: 2.81 (Simulation time: 00 hr 54 min 25 sec)
Heartbeat CPU 0 instructions: 650000000 cycles: 225239429 heartbeat IPC: 3.653 cumulative IPC: 2.821 (Simulation time: 00 hr 55 min 14 sec)
Simulation finished CPU 0 instructions: 600000001 cycles: 212702322 cumulative IPC: 2.821 (Simulation time: 00 hr 55 min 14 sec)
Simulation complete CPU 0 instructions: 600000001 cycles: 212702322 cumulative IPC: 2.821 (Simulation time: 00 hr 55 min 14 sec)

ChampSim completed all CPUs

=== Simulation ===
CPU 0 runs traces/400.perlbench-41B.champsimtrace.xz
Region of Interest Statistics

CPU 0 cumulative IPC: 2.821 instructions: 600000001 cycles: 212702322
CPU 0 Branch Prediction Accuracy: 99.19% MPKI: 1.684 Average ROB Occupancy at Mispredict: 101.9
Branch type MPKI
BRANCH_DIRECT_JUMP: 0.0123
BRANCH_INDIRECT: 0.323
BRANCH_CONDITIONAL: 1.14
BRANCH_DIRECT_CALL: 0.0043
BRANCH_INDIRECT_CALL: 0.2
BRANCH_RETURN: 0.00828

LLC TOTAL        ACCESS:     593145 HIT:     390895 MISS:     202250
LLC LOAD         ACCESS:     403569 HIT:     245075 MISS:     158494
LLC RFO          ACCESS:      32463 HIT:      21205 MISS:      11258
LLC PREFETCH     ACCESS:      52845 HIT:      32668 MISS:      20177
LLC WRITE        ACCESS:      85212 HIT:      81425 MISS:       3787
LLC TRANSLATION  ACCESS:      19056 HIT:      10522 MISS:       8534
LLC PREFETCH REQUESTED:      52845 ISSUED:      52845 USEFUL:      12888 USELESS:       4219
LLC AVERAGE MISS LATENCY: 587.4 cycles
cpu0_DTLB TOTAL        ACCESS:  129781454 HIT:  129076324 MISS:     705130
cpu0_DTLB LOAD         ACCESS:  129781454 HIT:  129076324 MISS:     705130
cpu0_DTLB RFO          ACCESS:          0 HIT:          0 MISS:          0
cpu0_DTLB PREFETCH     ACCESS:          0 HIT:          0 MISS:          0
cpu0_DTLB WRITE        ACCESS:          0 HIT:          0 MISS:          0
cpu0_DTLB TRANSLATION  ACCESS:          0 HIT:          0 MISS:          0
cpu0_DTLB PREFETCH REQUESTED:          0 ISSUED:          0 USEFUL:          0 USELESS:          0
cpu0_DTLB AVERAGE MISS LATENCY: 12.95 cycles
cpu0_ITLB TOTAL        ACCESS:    4877255 HIT:    4815147 MISS:      62108
cpu0_ITLB LOAD         ACCESS:    4877255 HIT:    4815147 MISS:      62108
cpu0_ITLB RFO          ACCESS:          0 HIT:          0 MISS:          0
cpu0_ITLB PREFETCH     ACCESS:          0 HIT:          0 MISS:          0
cpu0_ITLB WRITE        ACCESS:          0 HIT:          0 MISS:          0
cpu0_ITLB TRANSLATION  ACCESS:          0 HIT:          0 MISS:          0
cpu0_ITLB PREFETCH REQUESTED:          0 ISSUED:          0 USEFUL:          0 USELESS:          0
cpu0_ITLB AVERAGE MISS LATENCY: 5.556 cycles
cpu0_L1D TOTAL        ACCESS:  174373529 HIT:  172597653 MISS:    1775876
cpu0_L1D LOAD         ACCESS:   91349064 HIT:   89966378 MISS:    1382686
cpu0_L1D RFO          ACCESS:          0 HIT:          0 MISS:          0
cpu0_L1D PREFETCH     ACCESS:          0 HIT:          0 MISS:          0
cpu0_L1D WRITE        ACCESS:   83000002 HIT:   82630209 MISS:     369793
cpu0_L1D TRANSLATION  ACCESS:      24463 HIT:       1066 MISS:      23397
cpu0_L1D PREFETCH REQUESTED:          0 ISSUED:          0 USEFUL:          0 USELESS:          0
cpu0_L1D AVERAGE MISS LATENCY: 63.85 cycles
cpu0_L1I TOTAL        ACCESS:    5656285 HIT:    4851420 MISS:     804865
cpu0_L1I LOAD         ACCESS:    5656285 HIT:    4851420 MISS:     804865
cpu0_L1I RFO          ACCESS:          0 HIT:          0 MISS:          0
cpu0_L1I PREFETCH     ACCESS:          0 HIT:          0 MISS:          0
cpu0_L1I WRITE        ACCESS:          0 HIT:          0 MISS:          0
cpu0_L1I TRANSLATION  ACCESS:          0 HIT:          0 MISS:          0
cpu0_L1I PREFETCH REQUESTED:          0 ISSUED:          0 USEFUL:          0 USELESS:          0
cpu0_L1I AVERAGE MISS LATENCY: 9.74 cycles
cpu0_L2C TOTAL        ACCESS:    1668002 HIT:    1211081 MISS:     456921
cpu0_L2C LOAD         ACCESS:    1315276 HIT:     911707 MISS:     403569
cpu0_L2C RFO          ACCESS:      89574 HIT:      57110 MISS:      32464
cpu0_L2C PREFETCH     ACCESS:          0 HIT:          0 MISS:          0
cpu0_L2C WRITE        ACCESS:     239830 HIT:     237998 MISS:       1832
cpu0_L2C TRANSLATION  ACCESS:      23322 HIT:       4266 MISS:      19056
cpu0_L2C PREFETCH REQUESTED:          0 ISSUED:          0 USEFUL:          0 USELESS:          0
cpu0_L2C AVERAGE MISS LATENCY: 253.2 cycles
cpu0_STLB TOTAL        ACCESS:     508997 HIT:     486211 MISS:      22786
cpu0_STLB LOAD         ACCESS:     508997 HIT:     486211 MISS:      22786
cpu0_STLB RFO          ACCESS:          0 HIT:          0 MISS:          0
cpu0_STLB PREFETCH     ACCESS:          0 HIT:          0 MISS:          0
cpu0_STLB WRITE        ACCESS:          0 HIT:          0 MISS:          0
cpu0_STLB TRANSLATION  ACCESS:          0 HIT:          0 MISS:          0
cpu0_STLB PREFETCH REQUESTED:          0 ISSUED:          0 USEFUL:          0 USELESS:          0
cpu0_STLB AVERAGE MISS LATENCY: 286.3 cycles

DRAM Statistics

Channel 0 RQ ROW_BUFFER_HIT:      39361
  ROW_BUFFER_MISS:     154791
 AVG DBUS CONGESTED CYCLE: 3.824
WQ ROW_BUFFER_HIT: Channel 0 
  ROW_BUFFER_MISS:       5727
  FULL:      21672
Final OPTGen Hits: 6483
Final OPTGen Access: 8375
Final OPTGEN Hit Rate: 77.409
