WARNING: physical memory size is smaller than virtual memory size.

*** ChampSim Multicore Out-of-Order Simulator ***
Warmup Instructions: 50000000
Simulation Instructions: 600000000
Number of CPUs: 1
Page size: 4096

Off-chip DRAM Size: 4 GiB Channels: 1 Width: 64-bit Data Race: 3200 MT/s
Heartbeat CPU 0 instructions: 10000000 cycles: 2500061 heartbeat IPC: 4 cumulative IPC: 4 (Simulation time: 00 hr 00 min 36 sec)
Heartbeat CPU 0 instructions: 20000000 cycles: 5000061 heartbeat IPC: 4 cumulative IPC: 4 (Simulation time: 00 hr 01 min 10 sec)
Heartbeat CPU 0 instructions: 30000000 cycles: 7500061 heartbeat IPC: 4 cumulative IPC: 4 (Simulation time: 00 hr 01 min 46 sec)
Heartbeat CPU 0 instructions: 40000000 cycles: 10000061 heartbeat IPC: 4 cumulative IPC: 4 (Simulation time: 00 hr 02 min 21 sec)
Heartbeat CPU 0 instructions: 50000000 cycles: 12500061 heartbeat IPC: 4 cumulative IPC: 4 (Simulation time: 00 hr 02 min 56 sec)
Warmup finished CPU 0 instructions: 50000000 cycles: 12500062 cumulative IPC: 4 (Simulation time: 00 hr 02 min 56 sec)
Warmup complete CPU 0 instructions: 50000000 cycles: 12500062 cumulative IPC: 4 (Simulation time: 00 hr 02 min 56 sec)
Heartbeat CPU 0 instructions: 60000002 cycles: 16444688 heartbeat IPC: 2.535 cumulative IPC: 2.535 (Simulation time: 00 hr 03 min 43 sec)
Heartbeat CPU 0 instructions: 70000003 cycles: 20760893 heartbeat IPC: 2.317 cumulative IPC: 2.421 (Simulation time: 00 hr 04 min 29 sec)
Heartbeat CPU 0 instructions: 80000003 cycles: 25229157 heartbeat IPC: 2.238 cumulative IPC: 2.357 (Simulation time: 00 hr 05 min 16 sec)
Heartbeat CPU 0 instructions: 90000000 cycles: 28920814 heartbeat IPC: 2.709 cumulative IPC: 2.436 (Simulation time: 00 hr 06 min 00 sec)
Heartbeat CPU 0 instructions: 100000003 cycles: 32818788 heartbeat IPC: 2.565 cumulative IPC: 2.461 (Simulation time: 00 hr 06 min 45 sec)
Heartbeat CPU 0 instructions: 110000002 cycles: 36920325 heartbeat IPC: 2.438 cumulative IPC: 2.457 (Simulation time: 00 hr 07 min 31 sec)
Heartbeat CPU 0 instructions: 120000001 cycles: 40635683 heartbeat IPC: 2.692 cumulative IPC: 2.488 (Simulation time: 00 hr 08 min 14 sec)
Heartbeat CPU 0 instructions: 130000003 cycles: 44404658 heartbeat IPC: 2.653 cumulative IPC: 2.507 (Simulation time: 00 hr 08 min 56 sec)
Heartbeat CPU 0 instructions: 140000002 cycles: 48538024 heartbeat IPC: 2.419 cumulative IPC: 2.497 (Simulation time: 00 hr 09 min 42 sec)
Heartbeat CPU 0 instructions: 150000001 cycles: 52589949 heartbeat IPC: 2.468 cumulative IPC: 2.494 (Simulation time: 00 hr 10 min 27 sec)
Heartbeat CPU 0 instructions: 160000000 cycles: 56247531 heartbeat IPC: 2.734 cumulative IPC: 2.514 (Simulation time: 00 hr 11 min 10 sec)
Heartbeat CPU 0 instructions: 170000001 cycles: 60421737 heartbeat IPC: 2.396 cumulative IPC: 2.504 (Simulation time: 00 hr 11 min 56 sec)
Heartbeat CPU 0 instructions: 180000001 cycles: 63882371 heartbeat IPC: 2.89 cumulative IPC: 2.53 (Simulation time: 00 hr 12 min 38 sec)
Heartbeat CPU 0 instructions: 190000002 cycles: 67465761 heartbeat IPC: 2.791 cumulative IPC: 2.547 (Simulation time: 00 hr 13 min 22 sec)
Heartbeat CPU 0 instructions: 200000002 cycles: 71249161 heartbeat IPC: 2.643 cumulative IPC: 2.553 (Simulation time: 00 hr 14 min 06 sec)
Heartbeat CPU 0 instructions: 210000000 cycles: 74888079 heartbeat IPC: 2.748 cumulative IPC: 2.565 (Simulation time: 00 hr 14 min 48 sec)
Heartbeat CPU 0 instructions: 220000001 cycles: 78754029 heartbeat IPC: 2.587 cumulative IPC: 2.566 (Simulation time: 00 hr 15 min 32 sec)
Heartbeat CPU 0 instructions: 230000002 cycles: 82594747 heartbeat IPC: 2.604 cumulative IPC: 2.568 (Simulation time: 00 hr 16 min 16 sec)
Heartbeat CPU 0 instructions: 240000001 cycles: 86801493 heartbeat IPC: 2.377 cumulative IPC: 2.557 (Simulation time: 00 hr 17 min 01 sec)
Heartbeat CPU 0 instructions: 250000003 cycles: 91366485 heartbeat IPC: 2.191 cumulative IPC: 2.536 (Simulation time: 00 hr 17 min 49 sec)
Heartbeat CPU 0 instructions: 260000000 cycles: 95158973 heartbeat IPC: 2.637 cumulative IPC: 2.541 (Simulation time: 00 hr 18 min 35 sec)
Heartbeat CPU 0 instructions: 270000003 cycles: 102228918 heartbeat IPC: 1.414 cumulative IPC: 2.452 (Simulation time: 00 hr 19 min 40 sec)
Heartbeat CPU 0 instructions: 280000000 cycles: 112827224 heartbeat IPC: 0.9435 cumulative IPC: 2.292 (Simulation time: 00 hr 21 min 02 sec)
Heartbeat CPU 0 instructions: 290000000 cycles: 122529207 heartbeat IPC: 1.031 cumulative IPC: 2.181 (Simulation time: 00 hr 22 min 22 sec)
Heartbeat CPU 0 instructions: 300000003 cycles: 129964331 heartbeat IPC: 1.345 cumulative IPC: 2.128 (Simulation time: 00 hr 23 min 30 sec)
Heartbeat CPU 0 instructions: 310000004 cycles: 140506553 heartbeat IPC: 0.9486 cumulative IPC: 2.031 (Simulation time: 00 hr 24 min 54 sec)
Heartbeat CPU 0 instructions: 320000004 cycles: 145494605 heartbeat IPC: 2.005 cumulative IPC: 2.03 (Simulation time: 00 hr 25 min 47 sec)
Heartbeat CPU 0 instructions: 330000000 cycles: 149561279 heartbeat IPC: 2.459 cumulative IPC: 2.043 (Simulation time: 00 hr 26 min 33 sec)
Heartbeat CPU 0 instructions: 340000001 cycles: 153869234 heartbeat IPC: 2.321 cumulative IPC: 2.051 (Simulation time: 00 hr 27 min 19 sec)
Heartbeat CPU 0 instructions: 350000004 cycles: 158327321 heartbeat IPC: 2.243 cumulative IPC: 2.057 (Simulation time: 00 hr 28 min 06 sec)
Heartbeat CPU 0 instructions: 360000003 cycles: 162470084 heartbeat IPC: 2.414 cumulative IPC: 2.067 (Simulation time: 00 hr 28 min 50 sec)
Heartbeat CPU 0 instructions: 370000001 cycles: 166505290 heartbeat IPC: 2.478 cumulative IPC: 2.078 (Simulation time: 00 hr 29 min 35 sec)
Heartbeat CPU 0 instructions: 380000004 cycles: 170392362 heartbeat IPC: 2.573 cumulative IPC: 2.09 (Simulation time: 00 hr 30 min 19 sec)
Heartbeat CPU 0 instructions: 390000002 cycles: 174460507 heartbeat IPC: 2.458 cumulative IPC: 2.099 (Simulation time: 00 hr 31 min 04 sec)
Heartbeat CPU 0 instructions: 400000000 cycles: 178774159 heartbeat IPC: 2.318 cumulative IPC: 2.105 (Simulation time: 00 hr 31 min 50 sec)
Heartbeat CPU 0 instructions: 410000000 cycles: 185743258 heartbeat IPC: 1.435 cumulative IPC: 2.078 (Simulation time: 00 hr 32 min 50 sec)
Heartbeat CPU 0 instructions: 420000003 cycles: 195966866 heartbeat IPC: 0.9781 cumulative IPC: 2.017 (Simulation time: 00 hr 34 min 08 sec)
Heartbeat CPU 0 instructions: 430000000 cycles: 203189772 heartbeat IPC: 1.384 cumulative IPC: 1.993 (Simulation time: 00 hr 35 min 13 sec)
Heartbeat CPU 0 instructions: 440000004 cycles: 209886354 heartbeat IPC: 1.493 cumulative IPC: 1.976 (Simulation time: 00 hr 36 min 14 sec)
Heartbeat CPU 0 instructions: 450000001 cycles: 216678887 heartbeat IPC: 1.472 cumulative IPC: 1.959 (Simulation time: 00 hr 37 min 14 sec)
Heartbeat CPU 0 instructions: 460000002 cycles: 227129909 heartbeat IPC: 0.9568 cumulative IPC: 1.91 (Simulation time: 00 hr 38 min 33 sec)
Heartbeat CPU 0 instructions: 470000003 cycles: 236285921 heartbeat IPC: 1.092 cumulative IPC: 1.877 (Simulation time: 00 hr 39 min 46 sec)
Heartbeat CPU 0 instructions: 480000003 cycles: 240543950 heartbeat IPC: 2.349 cumulative IPC: 1.886 (Simulation time: 00 hr 40 min 32 sec)
Heartbeat CPU 0 instructions: 490000001 cycles: 245147514 heartbeat IPC: 2.172 cumulative IPC: 1.891 (Simulation time: 00 hr 41 min 19 sec)
Heartbeat CPU 0 instructions: 500000002 cycles: 249486224 heartbeat IPC: 2.305 cumulative IPC: 1.899 (Simulation time: 00 hr 42 min 05 sec)
Heartbeat CPU 0 instructions: 510000000 cycles: 253673916 heartbeat IPC: 2.388 cumulative IPC: 1.907 (Simulation time: 00 hr 42 min 51 sec)
Heartbeat CPU 0 instructions: 520000000 cycles: 258048677 heartbeat IPC: 2.286 cumulative IPC: 1.914 (Simulation time: 00 hr 43 min 38 sec)
Heartbeat CPU 0 instructions: 530000001 cycles: 268807024 heartbeat IPC: 0.9295 cumulative IPC: 1.873 (Simulation time: 00 hr 44 min 58 sec)
Heartbeat CPU 0 instructions: 540000000 cycles: 279343886 heartbeat IPC: 0.949 cumulative IPC: 1.836 (Simulation time: 00 hr 46 min 18 sec)
Heartbeat CPU 0 instructions: 550000004 cycles: 291412318 heartbeat IPC: 0.8286 cumulative IPC: 1.793 (Simulation time: 00 hr 47 min 46 sec)
Heartbeat CPU 0 instructions: 560000004 cycles: 295579622 heartbeat IPC: 2.4 cumulative IPC: 1.802 (Simulation time: 00 hr 48 min 31 sec)
Heartbeat CPU 0 instructions: 570000001 cycles: 298698784 heartbeat IPC: 3.206 cumulative IPC: 1.817 (Simulation time: 00 hr 49 min 12 sec)
Heartbeat CPU 0 instructions: 580000003 cycles: 302228826 heartbeat IPC: 2.833 cumulative IPC: 1.829 (Simulation time: 00 hr 49 min 54 sec)
Heartbeat CPU 0 instructions: 590000002 cycles: 305841722 heartbeat IPC: 2.768 cumulative IPC: 1.841 (Simulation time: 00 hr 50 min 37 sec)
Heartbeat CPU 0 instructions: 600000003 cycles: 308896272 heartbeat IPC: 3.274 cumulative IPC: 1.856 (Simulation time: 00 hr 51 min 17 sec)
Heartbeat CPU 0 instructions: 610000001 cycles: 312398490 heartbeat IPC: 2.855 cumulative IPC: 1.867 (Simulation time: 00 hr 52 min 02 sec)
Heartbeat CPU 0 instructions: 620000000 cycles: 316410212 heartbeat IPC: 2.493 cumulative IPC: 1.876 (Simulation time: 00 hr 52 min 48 sec)
Heartbeat CPU 0 instructions: 630000002 cycles: 319775166 heartbeat IPC: 2.972 cumulative IPC: 1.888 (Simulation time: 00 hr 53 min 31 sec)
Heartbeat CPU 0 instructions: 640000004 cycles: 323779716 heartbeat IPC: 2.497 cumulative IPC: 1.895 (Simulation time: 00 hr 54 min 16 sec)
Heartbeat CPU 0 instructions: 650000001 cycles: 327601540 heartbeat IPC: 2.617 cumulative IPC: 1.904 (Simulation time: 00 hr 55 min 02 sec)
Simulation finished CPU 0 instructions: 600000001 cycles: 315101479 cumulative IPC: 1.904 (Simulation time: 00 hr 55 min 02 sec)
Simulation complete CPU 0 instructions: 600000001 cycles: 315101479 cumulative IPC: 1.904 (Simulation time: 00 hr 55 min 02 sec)

ChampSim completed all CPUs

=== Simulation ===
CPU 0 runs traces/400.perlbench-50B.champsimtrace.xz
Region of Interest Statistics

CPU 0 cumulative IPC: 1.904 instructions: 600000001 cycles: 315101479
CPU 0 Branch Prediction Accuracy: 96.2% MPKI: 7.839 Average ROB Occupancy at Mispredict: 43.57
Branch type MPKI
BRANCH_DIRECT_JUMP: 0.0176
BRANCH_INDIRECT: 0.38
BRANCH_CONDITIONAL: 6.99
BRANCH_DIRECT_CALL: 0.0067
BRANCH_INDIRECT_CALL: 0.431
BRANCH_RETURN: 0.0161

LLC TOTAL        ACCESS:     836799 HIT:     556581 MISS:     280218
LLC LOAD         ACCESS:     576129 HIT:     353898 MISS:     222231
LLC RFO          ACCESS:      47399 HIT:      30343 MISS:      17056
LLC PREFETCH     ACCESS:      64103 HIT:      38595 MISS:      25508
LLC WRITE        ACCESS:     126995 HIT:     122120 MISS:       4875
LLC TRANSLATION  ACCESS:      22173 HIT:      11625 MISS:      10548
LLC PREFETCH REQUESTED:      64103 ISSUED:      64103 USEFUL:      16363 USELESS:       4238
LLC AVERAGE MISS LATENCY: 516.9 cycles
cpu0_DTLB TOTAL        ACCESS:  146518395 HIT:  145212483 MISS:    1305912
cpu0_DTLB LOAD         ACCESS:  146518395 HIT:  145212483 MISS:    1305912
cpu0_DTLB RFO          ACCESS:          0 HIT:          0 MISS:          0
cpu0_DTLB PREFETCH     ACCESS:          0 HIT:          0 MISS:          0
cpu0_DTLB WRITE        ACCESS:          0 HIT:          0 MISS:          0
cpu0_DTLB TRANSLATION  ACCESS:          0 HIT:          0 MISS:          0
cpu0_DTLB PREFETCH REQUESTED:          0 ISSUED:          0 USEFUL:          0 USELESS:          0
cpu0_DTLB AVERAGE MISS LATENCY: 10.97 cycles
cpu0_ITLB TOTAL        ACCESS:    8990480 HIT:    8806000 MISS:     184480
cpu0_ITLB LOAD         ACCESS:    8990480 HIT:    8806000 MISS:     184480
cpu0_ITLB RFO          ACCESS:          0 HIT:          0 MISS:          0
cpu0_ITLB PREFETCH     ACCESS:          0 HIT:          0 MISS:          0
cpu0_ITLB WRITE        ACCESS:          0 HIT:          0 MISS:          0
cpu0_ITLB TRANSLATION  ACCESS:          0 HIT:          0 MISS:          0
cpu0_ITLB PREFETCH REQUESTED:          0 ISSUED:          0 USEFUL:          0 USELESS:          0
cpu0_ITLB AVERAGE MISS LATENCY: 3.291 cycles
cpu0_L1D TOTAL        ACCESS:  193294842 HIT:  189638530 MISS:    3656312
cpu0_L1D LOAD         ACCESS:  107448356 HIT:  104439648 MISS:    3008708
cpu0_L1D RFO          ACCESS:          0 HIT:          0 MISS:          0
cpu0_L1D PREFETCH     ACCESS:          0 HIT:          0 MISS:          0
cpu0_L1D WRITE        ACCESS:   85817964 HIT:   85197455 MISS:     620509
cpu0_L1D TRANSLATION  ACCESS:      28522 HIT:       1427 MISS:      27095
cpu0_L1D PREFETCH REQUESTED:          0 ISSUED:          0 USEFUL:          0 USELESS:          0
cpu0_L1D AVERAGE MISS LATENCY: 41.35 cycles
cpu0_L1I TOTAL        ACCESS:   10424685 HIT:    8662248 MISS:    1762437
cpu0_L1I LOAD         ACCESS:   10424685 HIT:    8662248 MISS:    1762437
cpu0_L1I RFO          ACCESS:          0 HIT:          0 MISS:          0
cpu0_L1I PREFETCH     ACCESS:          0 HIT:          0 MISS:          0
cpu0_L1I WRITE        ACCESS:          0 HIT:          0 MISS:          0
cpu0_L1I TRANSLATION  ACCESS:          0 HIT:          0 MISS:          0
cpu0_L1I PREFETCH REQUESTED:          0 ISSUED:          0 USEFUL:          0 USELESS:          0
cpu0_L1I AVERAGE MISS LATENCY: 10.47 cycles
cpu0_L2C TOTAL        ACCESS:    3834631 HIT:    3185765 MISS:     648866
cpu0_L2C LOAD         ACCESS:    3104954 HIT:    2528825 MISS:     576129
cpu0_L2C RFO          ACCESS:     191552 HIT:     144153 MISS:      47399
cpu0_L2C PREFETCH     ACCESS:          0 HIT:          0 MISS:          0
cpu0_L2C WRITE        ACCESS:     511091 HIT:     507926 MISS:       3165
cpu0_L2C TRANSLATION  ACCESS:      27034 HIT:       4861 MISS:      22173
cpu0_L2C PREFETCH REQUESTED:          0 ISSUED:          0 USEFUL:          0 USELESS:          0
cpu0_L2C AVERAGE MISS LATENCY: 221.3 cycles
cpu0_STLB TOTAL        ACCESS:    1008398 HIT:     981704 MISS:      26694
cpu0_STLB LOAD         ACCESS:    1008398 HIT:     981704 MISS:      26694
cpu0_STLB RFO          ACCESS:          0 HIT:          0 MISS:          0
cpu0_STLB PREFETCH     ACCESS:          0 HIT:          0 MISS:          0
cpu0_STLB WRITE        ACCESS:          0 HIT:          0 MISS:          0
cpu0_STLB TRANSLATION  ACCESS:          0 HIT:          0 MISS:          0
cpu0_STLB PREFETCH REQUESTED:          0 ISSUED:          0 USEFUL:          0 USELESS:          0
cpu0_STLB AVERAGE MISS LATENCY: 314.6 cycles

DRAM Statistics

Channel 0 RQ ROW_BUFFER_HIT:      59423
  ROW_BUFFER_MISS:     211230
 AVG DBUS CONGESTED CYCLE: 3.789
WQ ROW_BUFFER_HIT: Channel 0 
  ROW_BUFFER_MISS:       8612
  FULL:      24684
Final OPTGen Hits: 8044
Final OPTGen Access: 10272
Final OPTGEN Hit Rate: 78.31
