WARNING: physical memory size is smaller than virtual memory size.

*** ChampSim Multicore Out-of-Order Simulator ***
Warmup Instructions: 50000000
Simulation Instructions: 600000000
Number of CPUs: 1
Page size: 4096

Off-chip DRAM Size: 4 GiB Channels: 1 Width: 64-bit Data Race: 3200 MT/s
Heartbeat CPU 0 instructions: 10000000 cycles: 2500061 heartbeat IPC: 4 cumulative IPC: 4 (Simulation time: 00 hr 00 min 45 sec)
Heartbeat CPU 0 instructions: 20000000 cycles: 5000061 heartbeat IPC: 4 cumulative IPC: 4 (Simulation time: 00 hr 01 min 28 sec)
Heartbeat CPU 0 instructions: 30000000 cycles: 7500061 heartbeat IPC: 4 cumulative IPC: 4 (Simulation time: 00 hr 02 min 20 sec)
Heartbeat CPU 0 instructions: 40000000 cycles: 10000061 heartbeat IPC: 4 cumulative IPC: 4 (Simulation time: 00 hr 03 min 04 sec)
Heartbeat CPU 0 instructions: 50000000 cycles: 12500061 heartbeat IPC: 4 cumulative IPC: 4 (Simulation time: 00 hr 03 min 46 sec)
Warmup finished CPU 0 instructions: 50000000 cycles: 12500062 cumulative IPC: 4 (Simulation time: 00 hr 03 min 46 sec)
Warmup complete CPU 0 instructions: 50000000 cycles: 12500062 cumulative IPC: 4 (Simulation time: 00 hr 03 min 46 sec)
Heartbeat CPU 0 instructions: 60000002 cycles: 16435783 heartbeat IPC: 2.541 cumulative IPC: 2.541 (Simulation time: 00 hr 04 min 43 sec)
Heartbeat CPU 0 instructions: 70000003 cycles: 20749204 heartbeat IPC: 2.318 cumulative IPC: 2.424 (Simulation time: 00 hr 05 min 45 sec)
Heartbeat CPU 0 instructions: 80000003 cycles: 25212938 heartbeat IPC: 2.24 cumulative IPC: 2.36 (Simulation time: 00 hr 06 min 44 sec)
Heartbeat CPU 0 instructions: 90000000 cycles: 28902625 heartbeat IPC: 2.71 cumulative IPC: 2.439 (Simulation time: 00 hr 07 min 41 sec)
Heartbeat CPU 0 instructions: 100000003 cycles: 32797283 heartbeat IPC: 2.568 cumulative IPC: 2.463 (Simulation time: 00 hr 08 min 42 sec)
Heartbeat CPU 0 instructions: 110000002 cycles: 36888882 heartbeat IPC: 2.444 cumulative IPC: 2.46 (Simulation time: 00 hr 09 min 44 sec)
Heartbeat CPU 0 instructions: 120000001 cycles: 40602045 heartbeat IPC: 2.693 cumulative IPC: 2.491 (Simulation time: 00 hr 10 min 44 sec)
Heartbeat CPU 0 instructions: 130000003 cycles: 44366187 heartbeat IPC: 2.657 cumulative IPC: 2.511 (Simulation time: 00 hr 11 min 44 sec)
Heartbeat CPU 0 instructions: 140000002 cycles: 48491614 heartbeat IPC: 2.424 cumulative IPC: 2.501 (Simulation time: 00 hr 12 min 46 sec)
Heartbeat CPU 0 instructions: 150000001 cycles: 52535644 heartbeat IPC: 2.473 cumulative IPC: 2.498 (Simulation time: 00 hr 13 min 48 sec)
Heartbeat CPU 0 instructions: 160000000 cycles: 56184366 heartbeat IPC: 2.741 cumulative IPC: 2.518 (Simulation time: 00 hr 14 min 47 sec)
Heartbeat CPU 0 instructions: 170000001 cycles: 60350038 heartbeat IPC: 2.401 cumulative IPC: 2.508 (Simulation time: 00 hr 15 min 48 sec)
Heartbeat CPU 0 instructions: 180000001 cycles: 63805525 heartbeat IPC: 2.894 cumulative IPC: 2.534 (Simulation time: 00 hr 16 min 42 sec)
Heartbeat CPU 0 instructions: 190000002 cycles: 67382191 heartbeat IPC: 2.796 cumulative IPC: 2.551 (Simulation time: 00 hr 17 min 38 sec)
Heartbeat CPU 0 instructions: 200000002 cycles: 71153161 heartbeat IPC: 2.652 cumulative IPC: 2.557 (Simulation time: 00 hr 18 min 33 sec)
Heartbeat CPU 0 instructions: 210000000 cycles: 74788089 heartbeat IPC: 2.751 cumulative IPC: 2.569 (Simulation time: 00 hr 19 min 28 sec)
Heartbeat CPU 0 instructions: 220000001 cycles: 78655984 heartbeat IPC: 2.585 cumulative IPC: 2.57 (Simulation time: 00 hr 20 min 27 sec)
Heartbeat CPU 0 instructions: 230000002 cycles: 82491062 heartbeat IPC: 2.608 cumulative IPC: 2.572 (Simulation time: 00 hr 21 min 26 sec)
Heartbeat CPU 0 instructions: 240000001 cycles: 86693138 heartbeat IPC: 2.38 cumulative IPC: 2.561 (Simulation time: 00 hr 22 min 24 sec)
Heartbeat CPU 0 instructions: 250000003 cycles: 91251932 heartbeat IPC: 2.194 cumulative IPC: 2.54 (Simulation time: 00 hr 23 min 23 sec)
Heartbeat CPU 0 instructions: 260000000 cycles: 95043028 heartbeat IPC: 2.638 cumulative IPC: 2.544 (Simulation time: 00 hr 24 min 19 sec)
Heartbeat CPU 0 instructions: 270000003 cycles: 101669240 heartbeat IPC: 1.509 cumulative IPC: 2.467 (Simulation time: 00 hr 25 min 34 sec)
Heartbeat CPU 0 instructions: 280000000 cycles: 111682054 heartbeat IPC: 0.9987 cumulative IPC: 2.319 (Simulation time: 00 hr 27 min 15 sec)
Heartbeat CPU 0 instructions: 290000000 cycles: 120792713 heartbeat IPC: 1.098 cumulative IPC: 2.216 (Simulation time: 00 hr 28 min 57 sec)
Heartbeat CPU 0 instructions: 300000003 cycles: 127963487 heartbeat IPC: 1.395 cumulative IPC: 2.165 (Simulation time: 00 hr 30 min 28 sec)
Heartbeat CPU 0 instructions: 310000004 cycles: 138104097 heartbeat IPC: 0.9861 cumulative IPC: 2.07 (Simulation time: 00 hr 32 min 19 sec)
Heartbeat CPU 0 instructions: 320000004 cycles: 143042532 heartbeat IPC: 2.025 cumulative IPC: 2.068 (Simulation time: 00 hr 33 min 31 sec)
Heartbeat CPU 0 instructions: 330000000 cycles: 147101446 heartbeat IPC: 2.464 cumulative IPC: 2.08 (Simulation time: 00 hr 34 min 37 sec)
Heartbeat CPU 0 instructions: 340000001 cycles: 151310275 heartbeat IPC: 2.376 cumulative IPC: 2.089 (Simulation time: 00 hr 35 min 42 sec)
Heartbeat CPU 0 instructions: 350000004 cycles: 155680407 heartbeat IPC: 2.288 cumulative IPC: 2.095 (Simulation time: 00 hr 36 min 48 sec)
Heartbeat CPU 0 instructions: 360000003 cycles: 159761934 heartbeat IPC: 2.45 cumulative IPC: 2.105 (Simulation time: 00 hr 37 min 48 sec)
Heartbeat CPU 0 instructions: 370000001 cycles: 163761877 heartbeat IPC: 2.5 cumulative IPC: 2.116 (Simulation time: 00 hr 38 min 48 sec)
Heartbeat CPU 0 instructions: 380000004 cycles: 167633772 heartbeat IPC: 2.583 cumulative IPC: 2.127 (Simulation time: 00 hr 39 min 46 sec)
Heartbeat CPU 0 instructions: 390000002 cycles: 171651333 heartbeat IPC: 2.489 cumulative IPC: 2.136 (Simulation time: 00 hr 40 min 46 sec)
Heartbeat CPU 0 instructions: 400000000 cycles: 175961997 heartbeat IPC: 2.32 cumulative IPC: 2.141 (Simulation time: 00 hr 41 min 47 sec)
Heartbeat CPU 0 instructions: 410000000 cycles: 182772194 heartbeat IPC: 1.468 cumulative IPC: 2.114 (Simulation time: 00 hr 43 min 06 sec)
Heartbeat CPU 0 instructions: 420000003 cycles: 192707215 heartbeat IPC: 1.007 cumulative IPC: 2.053 (Simulation time: 00 hr 44 min 48 sec)
Heartbeat CPU 0 instructions: 430000000 cycles: 199702410 heartbeat IPC: 1.43 cumulative IPC: 2.03 (Simulation time: 00 hr 46 min 12 sec)
Heartbeat CPU 0 instructions: 440000004 cycles: 206002624 heartbeat IPC: 1.587 cumulative IPC: 2.015 (Simulation time: 00 hr 47 min 33 sec)
Heartbeat CPU 0 instructions: 450000001 cycles: 212541349 heartbeat IPC: 1.529 cumulative IPC: 2 (Simulation time: 00 hr 48 min 52 sec)
Heartbeat CPU 0 instructions: 460000002 cycles: 222007718 heartbeat IPC: 1.056 cumulative IPC: 1.957 (Simulation time: 00 hr 50 min 37 sec)
Heartbeat CPU 0 instructions: 470000003 cycles: 230654485 heartbeat IPC: 1.157 cumulative IPC: 1.925 (Simulation time: 00 hr 52 min 18 sec)
Heartbeat CPU 0 instructions: 480000003 cycles: 234895422 heartbeat IPC: 2.358 cumulative IPC: 1.933 (Simulation time: 00 hr 53 min 18 sec)
Heartbeat CPU 0 instructions: 490000001 cycles: 239569229 heartbeat IPC: 2.14 cumulative IPC: 1.938 (Simulation time: 00 hr 54 min 23 sec)
Heartbeat CPU 0 instructions: 500000002 cycles: 243941702 heartbeat IPC: 2.287 cumulative IPC: 1.944 (Simulation time: 00 hr 55 min 28 sec)
Heartbeat CPU 0 instructions: 510000000 cycles: 248174289 heartbeat IPC: 2.363 cumulative IPC: 1.952 (Simulation time: 00 hr 56 min 32 sec)
Heartbeat CPU 0 instructions: 520000000 cycles: 252577074 heartbeat IPC: 2.271 cumulative IPC: 1.958 (Simulation time: 00 hr 57 min 37 sec)
Heartbeat CPU 0 instructions: 530000001 cycles: 262586845 heartbeat IPC: 0.999 cumulative IPC: 1.919 (Simulation time: 00 hr 59 min 24 sec)
Heartbeat CPU 0 instructions: 540000000 cycles: 272370206 heartbeat IPC: 1.022 cumulative IPC: 1.886 (Simulation time: 01 hr 01 min 11 sec)
Heartbeat CPU 0 instructions: 550000004 cycles: 283787285 heartbeat IPC: 0.8759 cumulative IPC: 1.843 (Simulation time: 01 hr 03 min 09 sec)
Heartbeat CPU 0 instructions: 560000004 cycles: 287875183 heartbeat IPC: 2.446 cumulative IPC: 1.852 (Simulation time: 01 hr 04 min 15 sec)
Heartbeat CPU 0 instructions: 570000001 cycles: 291002281 heartbeat IPC: 3.198 cumulative IPC: 1.867 (Simulation time: 01 hr 05 min 09 sec)
Heartbeat CPU 0 instructions: 580000003 cycles: 294539371 heartbeat IPC: 2.827 cumulative IPC: 1.879 (Simulation time: 01 hr 06 min 13 sec)
Heartbeat CPU 0 instructions: 590000002 cycles: 298164244 heartbeat IPC: 2.759 cumulative IPC: 1.89 (Simulation time: 01 hr 07 min 16 sec)
Heartbeat CPU 0 instructions: 600000003 cycles: 301227425 heartbeat IPC: 3.265 cumulative IPC: 1.905 (Simulation time: 01 hr 08 min 14 sec)
Heartbeat CPU 0 instructions: 610000001 cycles: 304733048 heartbeat IPC: 2.853 cumulative IPC: 1.916 (Simulation time: 01 hr 09 min 13 sec)
Heartbeat CPU 0 instructions: 620000000 cycles: 308749228 heartbeat IPC: 2.49 cumulative IPC: 1.924 (Simulation time: 01 hr 10 min 19 sec)
Heartbeat CPU 0 instructions: 630000002 cycles: 312111207 heartbeat IPC: 2.974 cumulative IPC: 1.936 (Simulation time: 01 hr 11 min 17 sec)
Heartbeat CPU 0 instructions: 640000004 cycles: 316120541 heartbeat IPC: 2.494 cumulative IPC: 1.943 (Simulation time: 01 hr 12 min 22 sec)
Heartbeat CPU 0 instructions: 650000001 cycles: 319940787 heartbeat IPC: 2.618 cumulative IPC: 1.952 (Simulation time: 01 hr 13 min 29 sec)
Simulation finished CPU 0 instructions: 600000001 cycles: 307440726 cumulative IPC: 1.952 (Simulation time: 01 hr 13 min 29 sec)
Simulation complete CPU 0 instructions: 600000001 cycles: 307440726 cumulative IPC: 1.952 (Simulation time: 01 hr 13 min 29 sec)

ChampSim completed all CPUs

=== Simulation ===
CPU 0 runs traces/400.perlbench-50B.champsimtrace.xz
Region of Interest Statistics

CPU 0 cumulative IPC: 1.952 instructions: 600000001 cycles: 307440726
CPU 0 Branch Prediction Accuracy: 96.2% MPKI: 7.839 Average ROB Occupancy at Mispredict: 43.32
Branch type MPKI
BRANCH_DIRECT_JUMP: 0.0176
BRANCH_INDIRECT: 0.38
BRANCH_CONDITIONAL: 6.99
BRANCH_DIRECT_CALL: 0.0067
BRANCH_INDIRECT_CALL: 0.431
BRANCH_RETURN: 0.0161

LLC TOTAL        ACCESS:    1353531 HIT:     948883 MISS:     404648
LLC LOAD         ACCESS:     578386 HIT:     396216 MISS:     182170
LLC RFO          ACCESS:      47422 HIT:      30590 MISS:      16832
LLC PREFETCH     ACCESS:     578386 HIT:     384039 MISS:     194347
LLC WRITE        ACCESS:     127249 HIT:     127128 MISS:        121
LLC TRANSLATION  ACCESS:      22088 HIT:      10910 MISS:      11178
LLC PREFETCH REQUESTED:     578386 ISSUED:     578386 USEFUL:      73538 USELESS:      65063
LLC AVERAGE MISS LATENCY: 531 cycles
cpu0_DTLB TOTAL        ACCESS:  146521518 HIT:  145215965 MISS:    1305553
cpu0_DTLB LOAD         ACCESS:  146521518 HIT:  145215965 MISS:    1305553
cpu0_DTLB RFO          ACCESS:          0 HIT:          0 MISS:          0
cpu0_DTLB PREFETCH     ACCESS:          0 HIT:          0 MISS:          0
cpu0_DTLB WRITE        ACCESS:          0 HIT:          0 MISS:          0
cpu0_DTLB TRANSLATION  ACCESS:          0 HIT:          0 MISS:          0
cpu0_DTLB PREFETCH REQUESTED:          0 ISSUED:          0 USEFUL:          0 USELESS:          0
cpu0_DTLB AVERAGE MISS LATENCY: 11.6 cycles
cpu0_ITLB TOTAL        ACCESS:    8986552 HIT:    8802052 MISS:     184500
cpu0_ITLB LOAD         ACCESS:    8986552 HIT:    8802052 MISS:     184500
cpu0_ITLB RFO          ACCESS:          0 HIT:          0 MISS:          0
cpu0_ITLB PREFETCH     ACCESS:          0 HIT:          0 MISS:          0
cpu0_ITLB WRITE        ACCESS:          0 HIT:          0 MISS:          0
cpu0_ITLB TRANSLATION  ACCESS:          0 HIT:          0 MISS:          0
cpu0_ITLB PREFETCH REQUESTED:          0 ISSUED:          0 USEFUL:          0 USELESS:          0
cpu0_ITLB AVERAGE MISS LATENCY: 3.418 cycles
cpu0_L1D TOTAL        ACCESS:  193310200 HIT:  189652963 MISS:    3657237
cpu0_L1D LOAD         ACCESS:  107464164 HIT:  104457515 MISS:    3006649
cpu0_L1D RFO          ACCESS:          0 HIT:          0 MISS:          0
cpu0_L1D PREFETCH     ACCESS:          0 HIT:          0 MISS:          0
cpu0_L1D WRITE        ACCESS:   85817509 HIT:   85194019 MISS:     623490
cpu0_L1D TRANSLATION  ACCESS:      28527 HIT:       1429 MISS:      27098
cpu0_L1D PREFETCH REQUESTED:          0 ISSUED:          0 USEFUL:          0 USELESS:          0
cpu0_L1D AVERAGE MISS LATENCY: 39.56 cycles
cpu0_L1I TOTAL        ACCESS:   10421399 HIT:    8659581 MISS:    1761818
cpu0_L1I LOAD         ACCESS:   10421399 HIT:    8659581 MISS:    1761818
cpu0_L1I RFO          ACCESS:          0 HIT:          0 MISS:          0
cpu0_L1I PREFETCH     ACCESS:          0 HIT:          0 MISS:          0
cpu0_L1I WRITE        ACCESS:          0 HIT:          0 MISS:          0
cpu0_L1I TRANSLATION  ACCESS:          0 HIT:          0 MISS:          0
cpu0_L1I PREFETCH REQUESTED:          0 ISSUED:          0 USEFUL:          0 USELESS:          0
cpu0_L1I AVERAGE MISS LATENCY: 9.615 cycles
cpu0_L2C TOTAL        ACCESS:    3834602 HIT:    3183628 MISS:     650974
cpu0_L2C LOAD         ACCESS:    3104924 HIT:    2526538 MISS:     578386
cpu0_L2C RFO          ACCESS:     191544 HIT:     144121 MISS:      47423
cpu0_L2C PREFETCH     ACCESS:          0 HIT:          0 MISS:          0
cpu0_L2C WRITE        ACCESS:     511100 HIT:     508023 MISS:       3077
cpu0_L2C TRANSLATION  ACCESS:      27034 HIT:       4946 MISS:      22088
cpu0_L2C PREFETCH REQUESTED:          0 ISSUED:          0 USEFUL:          0 USELESS:          0
cpu0_L2C AVERAGE MISS LATENCY: 208 cycles
cpu0_STLB TOTAL        ACCESS:    1008454 HIT:     981760 MISS:      26694
cpu0_STLB LOAD         ACCESS:    1008454 HIT:     981760 MISS:      26694
cpu0_STLB RFO          ACCESS:          0 HIT:          0 MISS:          0
cpu0_STLB PREFETCH     ACCESS:          0 HIT:          0 MISS:          0
cpu0_STLB WRITE        ACCESS:          0 HIT:          0 MISS:          0
cpu0_STLB TRANSLATION  ACCESS:          0 HIT:          0 MISS:          0
cpu0_STLB PREFETCH REQUESTED:          0 ISSUED:          0 USEFUL:          0 USELESS:          0
cpu0_STLB AVERAGE MISS LATENCY: 346.5 cycles

DRAM Statistics

Channel 0 RQ ROW_BUFFER_HIT:      77467
  ROW_BUFFER_MISS:     265425
 AVG DBUS CONGESTED CYCLE: 3.855
WQ ROW_BUFFER_HIT: Channel 0 
  ROW_BUFFER_MISS:       5991
  FULL:      28262
