WARNING: physical memory size is smaller than virtual memory size.

*** ChampSim Multicore Out-of-Order Simulator ***
Warmup Instructions: 50000000
Simulation Instructions: 600000000
Number of CPUs: 1
Page size: 4096

Off-chip DRAM Size: 4 GiB Channels: 1 Width: 64-bit Data Race: 3200 MT/s
Heartbeat CPU 0 instructions: 10000000 cycles: 2500061 heartbeat IPC: 4 cumulative IPC: 4 (Simulation time: 00 hr 03 min 31 sec)
Heartbeat CPU 0 instructions: 20000000 cycles: 5000061 heartbeat IPC: 4 cumulative IPC: 4 (Simulation time: 00 hr 06 min 44 sec)
Heartbeat CPU 0 instructions: 30000000 cycles: 7500061 heartbeat IPC: 4 cumulative IPC: 4 (Simulation time: 00 hr 10 min 11 sec)
Heartbeat CPU 0 instructions: 40000000 cycles: 10000061 heartbeat IPC: 4 cumulative IPC: 4 (Simulation time: 00 hr 13 min 30 sec)
Heartbeat CPU 0 instructions: 50000000 cycles: 12500061 heartbeat IPC: 4 cumulative IPC: 4 (Simulation time: 00 hr 16 min 43 sec)
Warmup finished CPU 0 instructions: 50000000 cycles: 12500062 cumulative IPC: 4 (Simulation time: 00 hr 16 min 43 sec)
Warmup complete CPU 0 instructions: 50000000 cycles: 12500062 cumulative IPC: 4 (Simulation time: 00 hr 16 min 43 sec)
Heartbeat CPU 0 instructions: 60000002 cycles: 16446623 heartbeat IPC: 2.534 cumulative IPC: 2.534 (Simulation time: 00 hr 21 min 14 sec)
Heartbeat CPU 0 instructions: 70000003 cycles: 20770663 heartbeat IPC: 2.313 cumulative IPC: 2.418 (Simulation time: 00 hr 25 min 45 sec)
Heartbeat CPU 0 instructions: 80000003 cycles: 25247437 heartbeat IPC: 2.234 cumulative IPC: 2.353 (Simulation time: 00 hr 30 min 40 sec)
Heartbeat CPU 0 instructions: 90000000 cycles: 28939876 heartbeat IPC: 2.708 cumulative IPC: 2.433 (Simulation time: 00 hr 34 min 55 sec)
Heartbeat CPU 0 instructions: 100000003 cycles: 32843908 heartbeat IPC: 2.561 cumulative IPC: 2.458 (Simulation time: 00 hr 39 min 19 sec)
Heartbeat CPU 0 instructions: 110000002 cycles: 36950135 heartbeat IPC: 2.435 cumulative IPC: 2.454 (Simulation time: 00 hr 43 min 44 sec)
Heartbeat CPU 0 instructions: 120000001 cycles: 40668359 heartbeat IPC: 2.689 cumulative IPC: 2.485 (Simulation time: 00 hr 48 min 00 sec)
Heartbeat CPU 0 instructions: 130000003 cycles: 44444328 heartbeat IPC: 2.648 cumulative IPC: 2.504 (Simulation time: 00 hr 52 min 18 sec)
Heartbeat CPU 0 instructions: 140000002 cycles: 48579315 heartbeat IPC: 2.418 cumulative IPC: 2.495 (Simulation time: 00 hr 56 min 46 sec)
Heartbeat CPU 0 instructions: 150000001 cycles: 52632664 heartbeat IPC: 2.467 cumulative IPC: 2.492 (Simulation time: 01 hr 01 min 10 sec)
Heartbeat CPU 0 instructions: 160000000 cycles: 56291651 heartbeat IPC: 2.733 cumulative IPC: 2.512 (Simulation time: 01 hr 05 min 23 sec)
Heartbeat CPU 0 instructions: 170000001 cycles: 60472265 heartbeat IPC: 2.392 cumulative IPC: 2.501 (Simulation time: 01 hr 09 min 54 sec)
Heartbeat CPU 0 instructions: 180000001 cycles: 63937266 heartbeat IPC: 2.886 cumulative IPC: 2.527 (Simulation time: 01 hr 14 min 04 sec)
Heartbeat CPU 0 instructions: 190000002 cycles: 67527991 heartbeat IPC: 2.785 cumulative IPC: 2.544 (Simulation time: 01 hr 18 min 21 sec)
Heartbeat CPU 0 instructions: 200000002 cycles: 71313371 heartbeat IPC: 2.642 cumulative IPC: 2.55 (Simulation time: 01 hr 22 min 42 sec)
Heartbeat CPU 0 instructions: 210000000 cycles: 74955304 heartbeat IPC: 2.746 cumulative IPC: 2.562 (Simulation time: 01 hr 26 min 58 sec)
Heartbeat CPU 0 instructions: 220000001 cycles: 78829096 heartbeat IPC: 2.581 cumulative IPC: 2.563 (Simulation time: 01 hr 31 min 20 sec)
Heartbeat CPU 0 instructions: 230000002 cycles: 82672692 heartbeat IPC: 2.602 cumulative IPC: 2.565 (Simulation time: 01 hr 35 min 41 sec)
Heartbeat CPU 0 instructions: 240000001 cycles: 86884508 heartbeat IPC: 2.374 cumulative IPC: 2.554 (Simulation time: 01 hr 40 min 14 sec)
Heartbeat CPU 0 instructions: 250000003 cycles: 91457630 heartbeat IPC: 2.187 cumulative IPC: 2.533 (Simulation time: 01 hr 44 min 52 sec)
Heartbeat CPU 0 instructions: 260000000 cycles: 95254458 heartbeat IPC: 2.634 cumulative IPC: 2.538 (Simulation time: 01 hr 49 min 13 sec)
Heartbeat CPU 0 instructions: 270000003 cycles: 102379693 heartbeat IPC: 1.403 cumulative IPC: 2.448 (Simulation time: 01 hr 55 min 34 sec)
Heartbeat CPU 0 instructions: 280000000 cycles: 113155141 heartbeat IPC: 0.928 cumulative IPC: 2.285 (Simulation time: 02 hr 04 min 12 sec)
Heartbeat CPU 0 instructions: 290000000 cycles: 123493523 heartbeat IPC: 0.9673 cumulative IPC: 2.162 (Simulation time: 02 hr 12 min 40 sec)
Heartbeat CPU 0 instructions: 300000003 cycles: 131069179 heartbeat IPC: 1.32 cumulative IPC: 2.108 (Simulation time: 02 hr 19 min 37 sec)
Heartbeat CPU 0 instructions: 310000004 cycles: 141962676 heartbeat IPC: 0.918 cumulative IPC: 2.008 (Simulation time: 02 hr 28 min 36 sec)
Heartbeat CPU 0 instructions: 320000004 cycles: 147078806 heartbeat IPC: 1.955 cumulative IPC: 2.006 (Simulation time: 02 hr 33 min 54 sec)
Heartbeat CPU 0 instructions: 330000000 cycles: 151147154 heartbeat IPC: 2.458 cumulative IPC: 2.02 (Simulation time: 02 hr 38 min 29 sec)
Heartbeat CPU 0 instructions: 340000001 cycles: 155421373 heartbeat IPC: 2.34 cumulative IPC: 2.029 (Simulation time: 02 hr 43 min 09 sec)
Heartbeat CPU 0 instructions: 350000004 cycles: 159736421 heartbeat IPC: 2.317 cumulative IPC: 2.038 (Simulation time: 02 hr 47 min 51 sec)
Heartbeat CPU 0 instructions: 360000003 cycles: 163647726 heartbeat IPC: 2.557 cumulative IPC: 2.051 (Simulation time: 02 hr 52 min 18 sec)
Heartbeat CPU 0 instructions: 370000001 cycles: 167469284 heartbeat IPC: 2.617 cumulative IPC: 2.065 (Simulation time: 02 hr 56 min 41 sec)
Heartbeat CPU 0 instructions: 380000004 cycles: 171096373 heartbeat IPC: 2.757 cumulative IPC: 2.081 (Simulation time: 03 hr 00 min 59 sec)
Heartbeat CPU 0 instructions: 390000002 cycles: 174746520 heartbeat IPC: 2.74 cumulative IPC: 2.096 (Simulation time: 03 hr 05 min 18 sec)
Heartbeat CPU 0 instructions: 400000000 cycles: 178622665 heartbeat IPC: 2.58 cumulative IPC: 2.107 (Simulation time: 03 hr 09 min 46 sec)
Heartbeat CPU 0 instructions: 410000000 cycles: 184408642 heartbeat IPC: 1.728 cumulative IPC: 2.094 (Simulation time: 03 hr 15 min 25 sec)
Heartbeat CPU 0 instructions: 420000003 cycles: 191889831 heartbeat IPC: 1.337 cumulative IPC: 2.063 (Simulation time: 03 hr 22 min 14 sec)
Heartbeat CPU 0 instructions: 430000000 cycles: 199115955 heartbeat IPC: 1.384 cumulative IPC: 2.036 (Simulation time: 03 hr 29 min 08 sec)
Heartbeat CPU 0 instructions: 440000004 cycles: 205927742 heartbeat IPC: 1.468 cumulative IPC: 2.016 (Simulation time: 03 hr 35 min 36 sec)
Heartbeat CPU 0 instructions: 450000001 cycles: 212732912 heartbeat IPC: 1.469 cumulative IPC: 1.998 (Simulation time: 03 hr 42 min 04 sec)
Heartbeat CPU 0 instructions: 460000002 cycles: 222635226 heartbeat IPC: 1.01 cumulative IPC: 1.951 (Simulation time: 03 hr 50 min 18 sec)
Heartbeat CPU 0 instructions: 470000003 cycles: 231842692 heartbeat IPC: 1.086 cumulative IPC: 1.915 (Simulation time: 03 hr 58 min 07 sec)
Heartbeat CPU 0 instructions: 480000003 cycles: 236071829 heartbeat IPC: 2.365 cumulative IPC: 1.923 (Simulation time: 04 hr 02 min 46 sec)
Heartbeat CPU 0 instructions: 490000001 cycles: 240573845 heartbeat IPC: 2.221 cumulative IPC: 1.929 (Simulation time: 04 hr 07 min 35 sec)
Heartbeat CPU 0 instructions: 500000002 cycles: 244631814 heartbeat IPC: 2.464 cumulative IPC: 1.939 (Simulation time: 04 hr 12 min 06 sec)
Heartbeat CPU 0 instructions: 510000000 cycles: 248348285 heartbeat IPC: 2.691 cumulative IPC: 1.95 (Simulation time: 04 hr 16 min 27 sec)
Heartbeat CPU 0 instructions: 520000000 cycles: 252084743 heartbeat IPC: 2.676 cumulative IPC: 1.962 (Simulation time: 04 hr 20 min 50 sec)
Heartbeat CPU 0 instructions: 530000001 cycles: 259545378 heartbeat IPC: 1.34 cumulative IPC: 1.943 (Simulation time: 04 hr 27 min 33 sec)
Heartbeat CPU 0 instructions: 540000000 cycles: 268096828 heartbeat IPC: 1.169 cumulative IPC: 1.917 (Simulation time: 04 hr 34 min 58 sec)
Heartbeat CPU 0 instructions: 550000004 cycles: 279194330 heartbeat IPC: 0.9011 cumulative IPC: 1.875 (Simulation time: 04 hr 43 min 54 sec)
Heartbeat CPU 0 instructions: 560000004 cycles: 283384434 heartbeat IPC: 2.387 cumulative IPC: 1.883 (Simulation time: 04 hr 48 min 28 sec)
Heartbeat CPU 0 instructions: 570000001 cycles: 286511611 heartbeat IPC: 3.198 cumulative IPC: 1.898 (Simulation time: 04 hr 52 min 40 sec)
Heartbeat CPU 0 instructions: 580000003 cycles: 290058558 heartbeat IPC: 2.819 cumulative IPC: 1.91 (Simulation time: 04 hr 56 min 53 sec)
Heartbeat CPU 0 instructions: 590000002 cycles: 293681502 heartbeat IPC: 2.76 cumulative IPC: 1.92 (Simulation time: 05 hr 01 min 15 sec)
Heartbeat CPU 0 instructions: 600000003 cycles: 296747642 heartbeat IPC: 3.261 cumulative IPC: 1.935 (Simulation time: 05 hr 05 min 36 sec)
Heartbeat CPU 0 instructions: 610000001 cycles: 300256500 heartbeat IPC: 2.85 cumulative IPC: 1.946 (Simulation time: 05 hr 09 min 58 sec)
Heartbeat CPU 0 instructions: 620000000 cycles: 304272866 heartbeat IPC: 2.49 cumulative IPC: 1.954 (Simulation time: 05 hr 14 min 37 sec)
Heartbeat CPU 0 instructions: 630000002 cycles: 307640463 heartbeat IPC: 2.969 cumulative IPC: 1.965 (Simulation time: 05 hr 18 min 53 sec)
Heartbeat CPU 0 instructions: 640000004 cycles: 311653532 heartbeat IPC: 2.492 cumulative IPC: 1.972 (Simulation time: 05 hr 23 min 38 sec)
Heartbeat CPU 0 instructions: 650000001 cycles: 315478752 heartbeat IPC: 2.614 cumulative IPC: 1.98 (Simulation time: 05 hr 28 min 10 sec)
Simulation finished CPU 0 instructions: 600000001 cycles: 302978691 cumulative IPC: 1.98 (Simulation time: 05 hr 28 min 10 sec)
Simulation complete CPU 0 instructions: 600000001 cycles: 302978691 cumulative IPC: 1.98 (Simulation time: 05 hr 28 min 10 sec)

ChampSim completed all CPUs

=== Simulation ===
CPU 0 runs traces/400.perlbench-50B.champsimtrace.xz
Region of Interest Statistics

CPU 0 cumulative IPC: 1.98 instructions: 600000001 cycles: 302978691
CPU 0 Branch Prediction Accuracy: 96.2% MPKI: 7.839 Average ROB Occupancy at Mispredict: 43.51
Branch type MPKI
BRANCH_DIRECT_JUMP: 0.0176
BRANCH_INDIRECT: 0.38
BRANCH_CONDITIONAL: 6.99
BRANCH_DIRECT_CALL: 0.0067
BRANCH_INDIRECT_CALL: 0.431
BRANCH_RETURN: 0.0161

LLC TOTAL        ACCESS:     783328 HIT:     573319 MISS:     210009
LLC LOAD         ACCESS:     585590 HIT:     410423 MISS:     175167
LLC RFO          ACCESS:      47552 HIT:      33131 MISS:      14421
LLC PREFETCH     ACCESS:          0 HIT:          0 MISS:          0
LLC WRITE        ACCESS:     128093 HIT:     120573 MISS:       7520
LLC TRANSLATION  ACCESS:      22093 HIT:       9192 MISS:      12901
LLC PREFETCH REQUESTED:          0 ISSUED:          0 USEFUL:          0 USELESS:          0
LLC AVERAGE MISS LATENCY: 491 cycles
cpu0_DTLB TOTAL        ACCESS:  146504790 HIT:  145198759 MISS:    1306031
cpu0_DTLB LOAD         ACCESS:  146504790 HIT:  145198759 MISS:    1306031
cpu0_DTLB RFO          ACCESS:          0 HIT:          0 MISS:          0
cpu0_DTLB PREFETCH     ACCESS:          0 HIT:          0 MISS:          0
cpu0_DTLB WRITE        ACCESS:          0 HIT:          0 MISS:          0
cpu0_DTLB TRANSLATION  ACCESS:          0 HIT:          0 MISS:          0
cpu0_DTLB PREFETCH REQUESTED:          0 ISSUED:          0 USEFUL:          0 USELESS:          0
cpu0_DTLB AVERAGE MISS LATENCY: 11.71 cycles
cpu0_ITLB TOTAL        ACCESS:    8988197 HIT:    8803622 MISS:     184575
cpu0_ITLB LOAD         ACCESS:    8988197 HIT:    8803622 MISS:     184575
cpu0_ITLB RFO          ACCESS:          0 HIT:          0 MISS:          0
cpu0_ITLB PREFETCH     ACCESS:          0 HIT:          0 MISS:          0
cpu0_ITLB WRITE        ACCESS:          0 HIT:          0 MISS:          0
cpu0_ITLB TRANSLATION  ACCESS:          0 HIT:          0 MISS:          0
cpu0_ITLB PREFETCH REQUESTED:          0 ISSUED:          0 USEFUL:          0 USELESS:          0
cpu0_ITLB AVERAGE MISS LATENCY: 3.344 cycles
cpu0_L1D TOTAL        ACCESS:  193284541 HIT:  189637305 MISS:    3647236
cpu0_L1D LOAD         ACCESS:  107439458 HIT:  104432666 MISS:    3006792
cpu0_L1D RFO          ACCESS:          0 HIT:          0 MISS:          0
cpu0_L1D PREFETCH     ACCESS:          0 HIT:          0 MISS:          0
cpu0_L1D WRITE        ACCESS:   85816561 HIT:   85203214 MISS:     613347
cpu0_L1D TRANSLATION  ACCESS:      28522 HIT:       1425 MISS:      27097
cpu0_L1D PREFETCH REQUESTED:          0 ISSUED:          0 USEFUL:          0 USELESS:          0
cpu0_L1D AVERAGE MISS LATENCY: 34.34 cycles
cpu0_L1I TOTAL        ACCESS:   10422490 HIT:    8660362 MISS:    1762128
cpu0_L1I LOAD         ACCESS:   10422490 HIT:    8660362 MISS:    1762128
cpu0_L1I RFO          ACCESS:          0 HIT:          0 MISS:          0
cpu0_L1I PREFETCH     ACCESS:          0 HIT:          0 MISS:          0
cpu0_L1I WRITE        ACCESS:          0 HIT:          0 MISS:          0
cpu0_L1I TRANSLATION  ACCESS:          0 HIT:          0 MISS:          0
cpu0_L1I PREFETCH REQUESTED:          0 ISSUED:          0 USEFUL:          0 USELESS:          0
cpu0_L1I AVERAGE MISS LATENCY: 10.05 cycles
cpu0_L2C TOTAL        ACCESS:    3834619 HIT:    3176192 MISS:     658427
cpu0_L2C LOAD         ACCESS:    3105007 HIT:    2519417 MISS:     585590
cpu0_L2C RFO          ACCESS:     191533 HIT:     143981 MISS:      47552
cpu0_L2C PREFETCH     ACCESS:          0 HIT:          0 MISS:          0
cpu0_L2C WRITE        ACCESS:     511051 HIT:     507859 MISS:       3192
cpu0_L2C TRANSLATION  ACCESS:      27028 HIT:       4935 MISS:      22093
cpu0_L2C PREFETCH REQUESTED:          0 ISSUED:          0 USEFUL:          0 USELESS:          0
cpu0_L2C AVERAGE MISS LATENCY: 176.8 cycles
cpu0_STLB TOTAL        ACCESS:    1008738 HIT:     982045 MISS:      26693
cpu0_STLB LOAD         ACCESS:    1008738 HIT:     982045 MISS:      26693
cpu0_STLB RFO          ACCESS:          0 HIT:          0 MISS:          0
cpu0_STLB PREFETCH     ACCESS:          0 HIT:          0 MISS:          0
cpu0_STLB WRITE        ACCESS:          0 HIT:          0 MISS:          0
cpu0_STLB TRANSLATION  ACCESS:          0 HIT:          0 MISS:          0
cpu0_STLB PREFETCH REQUESTED:          0 ISSUED:          0 USEFUL:          0 USELESS:          0
cpu0_STLB AVERAGE MISS LATENCY: 352.3 cycles

DRAM Statistics

Channel 0 RQ ROW_BUFFER_HIT:      42951
  ROW_BUFFER_MISS:     159523
 AVG DBUS CONGESTED CYCLE: 3.75
WQ ROW_BUFFER_HIT: Channel 0 
  ROW_BUFFER_MISS:       6824
  FULL:      13366
