WARNING: physical memory size is smaller than virtual memory size.

*** ChampSim Multicore Out-of-Order Simulator ***
Warmup Instructions: 50000000
Simulation Instructions: 600000000
Number of CPUs: 1
Page size: 4096

Off-chip DRAM Size: 4 GiB Channels: 1 Width: 64-bit Data Race: 3200 MT/s
Heartbeat CPU 0 instructions: 10000000 cycles: 2500061 heartbeat IPC: 4 cumulative IPC: 4 (Simulation time: 00 hr 00 min 46 sec)
Heartbeat CPU 0 instructions: 20000000 cycles: 5000061 heartbeat IPC: 4 cumulative IPC: 4 (Simulation time: 00 hr 01 min 33 sec)
Heartbeat CPU 0 instructions: 30000000 cycles: 7500061 heartbeat IPC: 4 cumulative IPC: 4 (Simulation time: 00 hr 02 min 18 sec)
Heartbeat CPU 0 instructions: 40000000 cycles: 10000061 heartbeat IPC: 4 cumulative IPC: 4 (Simulation time: 00 hr 03 min 03 sec)
Heartbeat CPU 0 instructions: 50000000 cycles: 12500061 heartbeat IPC: 4 cumulative IPC: 4 (Simulation time: 00 hr 03 min 48 sec)
Warmup finished CPU 0 instructions: 50000000 cycles: 12500062 cumulative IPC: 4 (Simulation time: 00 hr 03 min 48 sec)
Warmup complete CPU 0 instructions: 50000000 cycles: 12500062 cumulative IPC: 4 (Simulation time: 00 hr 03 min 48 sec)
Heartbeat CPU 0 instructions: 60000002 cycles: 16444688 heartbeat IPC: 2.535 cumulative IPC: 2.535 (Simulation time: 00 hr 04 min 48 sec)
Heartbeat CPU 0 instructions: 70000003 cycles: 20760893 heartbeat IPC: 2.317 cumulative IPC: 2.421 (Simulation time: 00 hr 05 min 48 sec)
Heartbeat CPU 0 instructions: 80000003 cycles: 25229157 heartbeat IPC: 2.238 cumulative IPC: 2.357 (Simulation time: 00 hr 06 min 47 sec)
Heartbeat CPU 0 instructions: 90000000 cycles: 28920814 heartbeat IPC: 2.709 cumulative IPC: 2.436 (Simulation time: 00 hr 07 min 42 sec)
Heartbeat CPU 0 instructions: 100000003 cycles: 32818788 heartbeat IPC: 2.565 cumulative IPC: 2.461 (Simulation time: 00 hr 08 min 39 sec)
Heartbeat CPU 0 instructions: 110000002 cycles: 36920325 heartbeat IPC: 2.438 cumulative IPC: 2.457 (Simulation time: 00 hr 09 min 37 sec)
Heartbeat CPU 0 instructions: 120000001 cycles: 40635683 heartbeat IPC: 2.692 cumulative IPC: 2.488 (Simulation time: 00 hr 10 min 34 sec)
Heartbeat CPU 0 instructions: 130000003 cycles: 44404658 heartbeat IPC: 2.653 cumulative IPC: 2.507 (Simulation time: 00 hr 11 min 32 sec)
Heartbeat CPU 0 instructions: 140000002 cycles: 48538024 heartbeat IPC: 2.419 cumulative IPC: 2.497 (Simulation time: 00 hr 12 min 31 sec)
Heartbeat CPU 0 instructions: 150000001 cycles: 52589949 heartbeat IPC: 2.468 cumulative IPC: 2.494 (Simulation time: 00 hr 13 min 28 sec)
Heartbeat CPU 0 instructions: 160000000 cycles: 56247531 heartbeat IPC: 2.734 cumulative IPC: 2.514 (Simulation time: 00 hr 14 min 23 sec)
Heartbeat CPU 0 instructions: 170000001 cycles: 60421737 heartbeat IPC: 2.396 cumulative IPC: 2.504 (Simulation time: 00 hr 15 min 24 sec)
Heartbeat CPU 0 instructions: 180000001 cycles: 63882371 heartbeat IPC: 2.89 cumulative IPC: 2.53 (Simulation time: 00 hr 16 min 20 sec)
Heartbeat CPU 0 instructions: 190000002 cycles: 67465761 heartbeat IPC: 2.791 cumulative IPC: 2.547 (Simulation time: 00 hr 17 min 16 sec)
Heartbeat CPU 0 instructions: 200000002 cycles: 71249161 heartbeat IPC: 2.643 cumulative IPC: 2.553 (Simulation time: 00 hr 18 min 15 sec)
Heartbeat CPU 0 instructions: 210000000 cycles: 74888079 heartbeat IPC: 2.748 cumulative IPC: 2.565 (Simulation time: 00 hr 19 min 16 sec)
Heartbeat CPU 0 instructions: 220000001 cycles: 78754029 heartbeat IPC: 2.587 cumulative IPC: 2.566 (Simulation time: 00 hr 20 min 18 sec)
Heartbeat CPU 0 instructions: 230000002 cycles: 82594747 heartbeat IPC: 2.604 cumulative IPC: 2.568 (Simulation time: 00 hr 21 min 22 sec)
Heartbeat CPU 0 instructions: 240000001 cycles: 86801493 heartbeat IPC: 2.377 cumulative IPC: 2.557 (Simulation time: 00 hr 22 min 25 sec)
Heartbeat CPU 0 instructions: 250000003 cycles: 91366485 heartbeat IPC: 2.191 cumulative IPC: 2.536 (Simulation time: 00 hr 23 min 32 sec)
Heartbeat CPU 0 instructions: 260000000 cycles: 95158973 heartbeat IPC: 2.637 cumulative IPC: 2.541 (Simulation time: 00 hr 24 min 35 sec)
Heartbeat CPU 0 instructions: 270000003 cycles: 102228918 heartbeat IPC: 1.414 cumulative IPC: 2.452 (Simulation time: 00 hr 26 min 03 sec)
Heartbeat CPU 0 instructions: 280000000 cycles: 112820004 heartbeat IPC: 0.9442 cumulative IPC: 2.293 (Simulation time: 00 hr 28 min 02 sec)
Heartbeat CPU 0 instructions: 290000000 cycles: 122412737 heartbeat IPC: 1.042 cumulative IPC: 2.184 (Simulation time: 00 hr 29 min 49 sec)
Heartbeat CPU 0 instructions: 300000003 cycles: 129655332 heartbeat IPC: 1.381 cumulative IPC: 2.134 (Simulation time: 00 hr 31 min 28 sec)
Heartbeat CPU 0 instructions: 310000004 cycles: 139709454 heartbeat IPC: 0.9946 cumulative IPC: 2.044 (Simulation time: 00 hr 33 min 27 sec)
Heartbeat CPU 0 instructions: 320000004 cycles: 144644611 heartbeat IPC: 2.026 cumulative IPC: 2.043 (Simulation time: 00 hr 34 min 42 sec)
Heartbeat CPU 0 instructions: 330000000 cycles: 148711573 heartbeat IPC: 2.459 cumulative IPC: 2.056 (Simulation time: 00 hr 35 min 46 sec)
Heartbeat CPU 0 instructions: 340000001 cycles: 153013155 heartbeat IPC: 2.325 cumulative IPC: 2.064 (Simulation time: 00 hr 36 min 54 sec)
Heartbeat CPU 0 instructions: 350000004 cycles: 157466428 heartbeat IPC: 2.246 cumulative IPC: 2.069 (Simulation time: 00 hr 38 min 02 sec)
Heartbeat CPU 0 instructions: 360000003 cycles: 161616002 heartbeat IPC: 2.41 cumulative IPC: 2.079 (Simulation time: 00 hr 39 min 06 sec)
Heartbeat CPU 0 instructions: 370000001 cycles: 165672445 heartbeat IPC: 2.465 cumulative IPC: 2.089 (Simulation time: 00 hr 40 min 09 sec)
Heartbeat CPU 0 instructions: 380000004 cycles: 169580027 heartbeat IPC: 2.559 cumulative IPC: 2.101 (Simulation time: 00 hr 41 min 12 sec)
Heartbeat CPU 0 instructions: 390000002 cycles: 173654888 heartbeat IPC: 2.454 cumulative IPC: 2.11 (Simulation time: 00 hr 42 min 16 sec)
Heartbeat CPU 0 instructions: 400000000 cycles: 178004275 heartbeat IPC: 2.299 cumulative IPC: 2.115 (Simulation time: 00 hr 43 min 25 sec)
Heartbeat CPU 0 instructions: 410000000 cycles: 185342347 heartbeat IPC: 1.363 cumulative IPC: 2.083 (Simulation time: 00 hr 44 min 51 sec)
Heartbeat CPU 0 instructions: 420000003 cycles: 196204983 heartbeat IPC: 0.9206 cumulative IPC: 2.014 (Simulation time: 00 hr 46 min 45 sec)
Heartbeat CPU 0 instructions: 430000000 cycles: 203637888 heartbeat IPC: 1.345 cumulative IPC: 1.988 (Simulation time: 00 hr 48 min 19 sec)
Heartbeat CPU 0 instructions: 440000004 cycles: 210095133 heartbeat IPC: 1.549 cumulative IPC: 1.974 (Simulation time: 00 hr 49 min 45 sec)
Heartbeat CPU 0 instructions: 450000001 cycles: 216826666 heartbeat IPC: 1.486 cumulative IPC: 1.958 (Simulation time: 00 hr 51 min 14 sec)
Heartbeat CPU 0 instructions: 460000002 cycles: 226689193 heartbeat IPC: 1.014 cumulative IPC: 1.914 (Simulation time: 00 hr 53 min 05 sec)
Heartbeat CPU 0 instructions: 470000003 cycles: 235471598 heartbeat IPC: 1.139 cumulative IPC: 1.884 (Simulation time: 00 hr 54 min 42 sec)
Heartbeat CPU 0 instructions: 480000003 cycles: 239731494 heartbeat IPC: 2.347 cumulative IPC: 1.892 (Simulation time: 00 hr 55 min 45 sec)
Heartbeat CPU 0 instructions: 490000001 cycles: 244468996 heartbeat IPC: 2.111 cumulative IPC: 1.897 (Simulation time: 00 hr 56 min 49 sec)
Heartbeat CPU 0 instructions: 500000002 cycles: 248913159 heartbeat IPC: 2.25 cumulative IPC: 1.903 (Simulation time: 00 hr 57 min 56 sec)
Heartbeat CPU 0 instructions: 510000000 cycles: 253193610 heartbeat IPC: 2.336 cumulative IPC: 1.911 (Simulation time: 00 hr 59 min 02 sec)
Heartbeat CPU 0 instructions: 520000000 cycles: 257649072 heartbeat IPC: 2.244 cumulative IPC: 1.917 (Simulation time: 01 hr 00 min 09 sec)
Heartbeat CPU 0 instructions: 530000001 cycles: 268820502 heartbeat IPC: 0.8951 cumulative IPC: 1.873 (Simulation time: 01 hr 02 min 10 sec)
Heartbeat CPU 0 instructions: 540000000 cycles: 279525020 heartbeat IPC: 0.9342 cumulative IPC: 1.835 (Simulation time: 01 hr 04 min 09 sec)
Heartbeat CPU 0 instructions: 550000004 cycles: 291497407 heartbeat IPC: 0.8353 cumulative IPC: 1.792 (Simulation time: 01 hr 06 min 17 sec)
Heartbeat CPU 0 instructions: 560000004 cycles: 295595517 heartbeat IPC: 2.44 cumulative IPC: 1.802 (Simulation time: 01 hr 07 min 23 sec)
Heartbeat CPU 0 instructions: 570000001 cycles: 298722022 heartbeat IPC: 3.198 cumulative IPC: 1.817 (Simulation time: 01 hr 08 min 24 sec)
Heartbeat CPU 0 instructions: 580000003 cycles: 302265536 heartbeat IPC: 2.822 cumulative IPC: 1.829 (Simulation time: 01 hr 09 min 28 sec)
Heartbeat CPU 0 instructions: 590000002 cycles: 305888652 heartbeat IPC: 2.76 cumulative IPC: 1.841 (Simulation time: 01 hr 10 min 31 sec)
Heartbeat CPU 0 instructions: 600000003 cycles: 308951226 heartbeat IPC: 3.265 cumulative IPC: 1.855 (Simulation time: 01 hr 11 min 30 sec)
Heartbeat CPU 0 instructions: 610000001 cycles: 312458303 heartbeat IPC: 2.851 cumulative IPC: 1.867 (Simulation time: 01 hr 12 min 40 sec)
Heartbeat CPU 0 instructions: 620000000 cycles: 316475519 heartbeat IPC: 2.489 cumulative IPC: 1.875 (Simulation time: 01 hr 13 min 48 sec)
Heartbeat CPU 0 instructions: 630000002 cycles: 319841535 heartbeat IPC: 2.971 cumulative IPC: 1.887 (Simulation time: 01 hr 14 min 50 sec)
Heartbeat CPU 0 instructions: 640000004 cycles: 323853467 heartbeat IPC: 2.493 cumulative IPC: 1.895 (Simulation time: 01 hr 15 min 56 sec)
Heartbeat CPU 0 instructions: 650000001 cycles: 327680172 heartbeat IPC: 2.613 cumulative IPC: 1.904 (Simulation time: 01 hr 17 min 05 sec)
Simulation finished CPU 0 instructions: 600000001 cycles: 315180111 cumulative IPC: 1.904 (Simulation time: 01 hr 17 min 05 sec)
Simulation complete CPU 0 instructions: 600000001 cycles: 315180111 cumulative IPC: 1.904 (Simulation time: 01 hr 17 min 05 sec)

ChampSim completed all CPUs

=== Simulation ===
CPU 0 runs traces/400.perlbench-50B.champsimtrace.xz
Region of Interest Statistics

CPU 0 cumulative IPC: 1.904 instructions: 600000001 cycles: 315180111
CPU 0 Branch Prediction Accuracy: 96.2% MPKI: 7.839 Average ROB Occupancy at Mispredict: 43.59
Branch type MPKI
BRANCH_DIRECT_JUMP: 0.0176
BRANCH_INDIRECT: 0.38
BRANCH_CONDITIONAL: 6.99
BRANCH_DIRECT_CALL: 0.0067
BRANCH_INDIRECT_CALL: 0.431
BRANCH_RETURN: 0.0161

LLC TOTAL        ACCESS:     837280 HIT:     547647 MISS:     289633
LLC LOAD         ACCESS:     576332 HIT:     342559 MISS:     233773
LLC RFO          ACCESS:      47490 HIT:      29605 MISS:      17885
LLC PREFETCH     ACCESS:      64190 HIT:      36921 MISS:      27269
LLC WRITE        ACCESS:     127173 HIT:     127084 MISS:         89
LLC TRANSLATION  ACCESS:      22095 HIT:      11478 MISS:      10617
LLC PREFETCH REQUESTED:      64190 ISSUED:      64190 USEFUL:      17327 USELESS:       5407
LLC AVERAGE MISS LATENCY: 538.3 cycles
cpu0_DTLB TOTAL        ACCESS:  146517559 HIT:  145211857 MISS:    1305702
cpu0_DTLB LOAD         ACCESS:  146517559 HIT:  145211857 MISS:    1305702
cpu0_DTLB RFO          ACCESS:          0 HIT:          0 MISS:          0
cpu0_DTLB PREFETCH     ACCESS:          0 HIT:          0 MISS:          0
cpu0_DTLB WRITE        ACCESS:          0 HIT:          0 MISS:          0
cpu0_DTLB TRANSLATION  ACCESS:          0 HIT:          0 MISS:          0
cpu0_DTLB PREFETCH REQUESTED:          0 ISSUED:          0 USEFUL:          0 USELESS:          0
cpu0_DTLB AVERAGE MISS LATENCY: 11.06 cycles
cpu0_ITLB TOTAL        ACCESS:    8991082 HIT:    8806587 MISS:     184495
cpu0_ITLB LOAD         ACCESS:    8991082 HIT:    8806587 MISS:     184495
cpu0_ITLB RFO          ACCESS:          0 HIT:          0 MISS:          0
cpu0_ITLB PREFETCH     ACCESS:          0 HIT:          0 MISS:          0
cpu0_ITLB WRITE        ACCESS:          0 HIT:          0 MISS:          0
cpu0_ITLB TRANSLATION  ACCESS:          0 HIT:          0 MISS:          0
cpu0_ITLB PREFETCH REQUESTED:          0 ISSUED:          0 USEFUL:          0 USELESS:          0
cpu0_ITLB AVERAGE MISS LATENCY: 3.212 cycles
cpu0_L1D TOTAL        ACCESS:  193294032 HIT:  189634599 MISS:    3659433
cpu0_L1D LOAD         ACCESS:  107447840 HIT:  104438573 MISS:    3009267
cpu0_L1D RFO          ACCESS:          0 HIT:          0 MISS:          0
cpu0_L1D PREFETCH     ACCESS:          0 HIT:          0 MISS:          0
cpu0_L1D WRITE        ACCESS:   85817670 HIT:   85194601 MISS:     623069
cpu0_L1D TRANSLATION  ACCESS:      28522 HIT:       1425 MISS:      27097
cpu0_L1D PREFETCH REQUESTED:          0 ISSUED:          0 USEFUL:          0 USELESS:          0
cpu0_L1D AVERAGE MISS LATENCY: 43.83 cycles
cpu0_L1I TOTAL        ACCESS:   10425172 HIT:    8662660 MISS:    1762512
cpu0_L1I LOAD         ACCESS:   10425172 HIT:    8662660 MISS:    1762512
cpu0_L1I RFO          ACCESS:          0 HIT:          0 MISS:          0
cpu0_L1I PREFETCH     ACCESS:          0 HIT:          0 MISS:          0
cpu0_L1I WRITE        ACCESS:          0 HIT:          0 MISS:          0
cpu0_L1I TRANSLATION  ACCESS:          0 HIT:          0 MISS:          0
cpu0_L1I PREFETCH REQUESTED:          0 ISSUED:          0 USEFUL:          0 USELESS:          0
cpu0_L1I AVERAGE MISS LATENCY: 10.36 cycles
cpu0_L2C TOTAL        ACCESS:    3834682 HIT:    3185573 MISS:     649109
cpu0_L2C LOAD         ACCESS:    3104970 HIT:    2528638 MISS:     576332
cpu0_L2C RFO          ACCESS:     191556 HIT:     144066 MISS:      47490
cpu0_L2C PREFETCH     ACCESS:          0 HIT:          0 MISS:          0
cpu0_L2C WRITE        ACCESS:     511121 HIT:     507929 MISS:       3192
cpu0_L2C TRANSLATION  ACCESS:      27035 HIT:       4940 MISS:      22095
cpu0_L2C PREFETCH REQUESTED:          0 ISSUED:          0 USEFUL:          0 USELESS:          0
cpu0_L2C AVERAGE MISS LATENCY: 235.6 cycles
cpu0_STLB TOTAL        ACCESS:    1008373 HIT:     981679 MISS:      26694
cpu0_STLB LOAD         ACCESS:    1008373 HIT:     981679 MISS:      26694
cpu0_STLB RFO          ACCESS:          0 HIT:          0 MISS:          0
cpu0_STLB PREFETCH     ACCESS:          0 HIT:          0 MISS:          0
cpu0_STLB WRITE        ACCESS:          0 HIT:          0 MISS:          0
cpu0_STLB TRANSLATION  ACCESS:          0 HIT:          0 MISS:          0
cpu0_STLB PREFETCH REQUESTED:          0 ISSUED:          0 USEFUL:          0 USELESS:          0
cpu0_STLB AVERAGE MISS LATENCY: 318.9 cycles

DRAM Statistics

Channel 0 RQ ROW_BUFFER_HIT:      63116
  ROW_BUFFER_MISS:     221578
 AVG DBUS CONGESTED CYCLE: 3.798
WQ ROW_BUFFER_HIT: Channel 0 
  ROW_BUFFER_MISS:       7256
  FULL:      27478
