WARNING: physical memory size is smaller than virtual memory size.

*** ChampSim Multicore Out-of-Order Simulator ***
Warmup Instructions: 50000000
Simulation Instructions: 600000000
Number of CPUs: 1
Page size: 4096

Off-chip DRAM Size: 4 GiB Channels: 1 Width: 64-bit Data Race: 3200 MT/s
Heartbeat CPU 0 instructions: 10000000 cycles: 2500061 heartbeat IPC: 4 cumulative IPC: 4 (Simulation time: 00 hr 03 min 12 sec)
Heartbeat CPU 0 instructions: 20000000 cycles: 5000061 heartbeat IPC: 4 cumulative IPC: 4 (Simulation time: 00 hr 06 min 34 sec)
Heartbeat CPU 0 instructions: 30000000 cycles: 7500061 heartbeat IPC: 4 cumulative IPC: 4 (Simulation time: 00 hr 09 min 54 sec)
Heartbeat CPU 0 instructions: 40000000 cycles: 10000061 heartbeat IPC: 4 cumulative IPC: 4 (Simulation time: 00 hr 13 min 01 sec)
Heartbeat CPU 0 instructions: 50000000 cycles: 12500061 heartbeat IPC: 4 cumulative IPC: 4 (Simulation time: 00 hr 16 min 20 sec)
Warmup finished CPU 0 instructions: 50000000 cycles: 12500062 cumulative IPC: 4 (Simulation time: 00 hr 16 min 20 sec)
Warmup complete CPU 0 instructions: 50000000 cycles: 12500062 cumulative IPC: 4 (Simulation time: 00 hr 16 min 20 sec)
Heartbeat CPU 0 instructions: 60000002 cycles: 16897168 heartbeat IPC: 2.274 cumulative IPC: 2.274 (Simulation time: 00 hr 20 min 58 sec)
Heartbeat CPU 0 instructions: 70000003 cycles: 21874323 heartbeat IPC: 2.009 cumulative IPC: 2.134 (Simulation time: 00 hr 26 min 02 sec)
Heartbeat CPU 0 instructions: 80000001 cycles: 27217652 heartbeat IPC: 1.871 cumulative IPC: 2.038 (Simulation time: 00 hr 31 min 07 sec)
Heartbeat CPU 0 instructions: 90000000 cycles: 31512174 heartbeat IPC: 2.329 cumulative IPC: 2.104 (Simulation time: 00 hr 35 min 41 sec)
Heartbeat CPU 0 instructions: 100000003 cycles: 36360283 heartbeat IPC: 2.063 cumulative IPC: 2.096 (Simulation time: 00 hr 40 min 31 sec)
Heartbeat CPU 0 instructions: 110000002 cycles: 41223823 heartbeat IPC: 2.056 cumulative IPC: 2.089 (Simulation time: 00 hr 45 min 19 sec)
Heartbeat CPU 0 instructions: 120000001 cycles: 46216185 heartbeat IPC: 2.003 cumulative IPC: 2.076 (Simulation time: 00 hr 50 min 15 sec)
Heartbeat CPU 0 instructions: 130000003 cycles: 50774631 heartbeat IPC: 2.194 cumulative IPC: 2.09 (Simulation time: 00 hr 54 min 53 sec)
Heartbeat CPU 0 instructions: 140000002 cycles: 55657500 heartbeat IPC: 2.048 cumulative IPC: 2.085 (Simulation time: 00 hr 59 min 38 sec)
Heartbeat CPU 0 instructions: 150000001 cycles: 60315882 heartbeat IPC: 2.147 cumulative IPC: 2.091 (Simulation time: 01 hr 04 min 20 sec)
Heartbeat CPU 0 instructions: 160000000 cycles: 64944965 heartbeat IPC: 2.16 cumulative IPC: 2.097 (Simulation time: 01 hr 09 min 02 sec)
Heartbeat CPU 0 instructions: 170000000 cycles: 70269944 heartbeat IPC: 1.878 cumulative IPC: 2.077 (Simulation time: 01 hr 14 min 07 sec)
Heartbeat CPU 0 instructions: 180000001 cycles: 75985244 heartbeat IPC: 1.75 cumulative IPC: 2.048 (Simulation time: 01 hr 19 min 26 sec)
Heartbeat CPU 0 instructions: 190000002 cycles: 80446549 heartbeat IPC: 2.241 cumulative IPC: 2.06 (Simulation time: 01 hr 24 min 07 sec)
Heartbeat CPU 0 instructions: 200000002 cycles: 85337187 heartbeat IPC: 2.045 cumulative IPC: 2.059 (Simulation time: 01 hr 29 min 00 sec)
Heartbeat CPU 0 instructions: 210000000 cycles: 90334775 heartbeat IPC: 2.001 cumulative IPC: 2.056 (Simulation time: 01 hr 33 min 53 sec)
Heartbeat CPU 0 instructions: 220000001 cycles: 95256096 heartbeat IPC: 2.032 cumulative IPC: 2.054 (Simulation time: 01 hr 38 min 46 sec)
Heartbeat CPU 0 instructions: 230000002 cycles: 100493367 heartbeat IPC: 1.909 cumulative IPC: 2.046 (Simulation time: 01 hr 43 min 50 sec)
Heartbeat CPU 0 instructions: 240000001 cycles: 105450230 heartbeat IPC: 2.017 cumulative IPC: 2.044 (Simulation time: 01 hr 48 min 44 sec)
Heartbeat CPU 0 instructions: 250000003 cycles: 110619443 heartbeat IPC: 1.935 cumulative IPC: 2.038 (Simulation time: 01 hr 53 min 43 sec)
Heartbeat CPU 0 instructions: 260000001 cycles: 115478521 heartbeat IPC: 2.058 cumulative IPC: 2.039 (Simulation time: 01 hr 58 min 34 sec)
Heartbeat CPU 0 instructions: 270000000 cycles: 122737668 heartbeat IPC: 1.378 cumulative IPC: 1.996 (Simulation time: 02 hr 04 min 53 sec)
Heartbeat CPU 0 instructions: 280000000 cycles: 133539368 heartbeat IPC: 0.9258 cumulative IPC: 1.9 (Simulation time: 02 hr 13 min 31 sec)
Heartbeat CPU 0 instructions: 290000001 cycles: 145319406 heartbeat IPC: 0.8489 cumulative IPC: 1.807 (Simulation time: 02 hr 22 min 44 sec)
Heartbeat CPU 0 instructions: 300000003 cycles: 154125919 heartbeat IPC: 1.136 cumulative IPC: 1.765 (Simulation time: 02 hr 30 min 20 sec)
Heartbeat CPU 0 instructions: 310000004 cycles: 166804357 heartbeat IPC: 0.7887 cumulative IPC: 1.685 (Simulation time: 02 hr 40 min 09 sec)
Heartbeat CPU 0 instructions: 320000004 cycles: 173164919 heartbeat IPC: 1.572 cumulative IPC: 1.681 (Simulation time: 02 hr 46 min 06 sec)
Heartbeat CPU 0 instructions: 330000000 cycles: 178445315 heartbeat IPC: 1.894 cumulative IPC: 1.687 (Simulation time: 02 hr 51 min 15 sec)
Heartbeat CPU 0 instructions: 340000001 cycles: 183467745 heartbeat IPC: 1.991 cumulative IPC: 1.696 (Simulation time: 02 hr 56 min 12 sec)
Heartbeat CPU 0 instructions: 350000000 cycles: 188499775 heartbeat IPC: 1.987 cumulative IPC: 1.705 (Simulation time: 03 hr 01 min 11 sec)
Heartbeat CPU 0 instructions: 360000003 cycles: 193250896 heartbeat IPC: 2.105 cumulative IPC: 1.715 (Simulation time: 03 hr 06 min 01 sec)
Heartbeat CPU 0 instructions: 370000001 cycles: 197936710 heartbeat IPC: 2.134 cumulative IPC: 1.726 (Simulation time: 03 hr 10 min 49 sec)
Heartbeat CPU 0 instructions: 380000004 cycles: 202912104 heartbeat IPC: 2.01 cumulative IPC: 1.733 (Simulation time: 03 hr 15 min 49 sec)
Heartbeat CPU 0 instructions: 390000002 cycles: 207803870 heartbeat IPC: 2.044 cumulative IPC: 1.741 (Simulation time: 03 hr 20 min 48 sec)
Heartbeat CPU 0 instructions: 400000000 cycles: 212793480 heartbeat IPC: 2.004 cumulative IPC: 1.747 (Simulation time: 03 hr 25 min 59 sec)
Heartbeat CPU 0 instructions: 410000000 cycles: 219584890 heartbeat IPC: 1.472 cumulative IPC: 1.738 (Simulation time: 03 hr 32 min 11 sec)
Heartbeat CPU 0 instructions: 420000001 cycles: 228763782 heartbeat IPC: 1.089 cumulative IPC: 1.711 (Simulation time: 03 hr 39 min 56 sec)
Heartbeat CPU 0 instructions: 430000000 cycles: 237733387 heartbeat IPC: 1.115 cumulative IPC: 1.687 (Simulation time: 03 hr 47 min 40 sec)
Heartbeat CPU 0 instructions: 440000002 cycles: 246866751 heartbeat IPC: 1.095 cumulative IPC: 1.664 (Simulation time: 03 hr 55 min 21 sec)
Heartbeat CPU 0 instructions: 450000000 cycles: 255448686 heartbeat IPC: 1.165 cumulative IPC: 1.646 (Simulation time: 04 hr 02 min 46 sec)
Heartbeat CPU 0 instructions: 460000002 cycles: 268790631 heartbeat IPC: 0.7495 cumulative IPC: 1.6 (Simulation time: 04 hr 12 min 54 sec)
Heartbeat CPU 0 instructions: 470000000 cycles: 279842737 heartbeat IPC: 0.9048 cumulative IPC: 1.571 (Simulation time: 04 hr 21 min 40 sec)
Heartbeat CPU 0 instructions: 480000000 cycles: 285265277 heartbeat IPC: 1.844 cumulative IPC: 1.576 (Simulation time: 04 hr 26 min 54 sec)
Heartbeat CPU 0 instructions: 490000001 cycles: 290336369 heartbeat IPC: 1.972 cumulative IPC: 1.584 (Simulation time: 04 hr 31 min 55 sec)
Heartbeat CPU 0 instructions: 500000002 cycles: 295225499 heartbeat IPC: 2.045 cumulative IPC: 1.592 (Simulation time: 04 hr 36 min 50 sec)
Heartbeat CPU 0 instructions: 510000000 cycles: 300129723 heartbeat IPC: 2.039 cumulative IPC: 1.599 (Simulation time: 04 hr 41 min 46 sec)
Heartbeat CPU 0 instructions: 520000000 cycles: 305064888 heartbeat IPC: 2.026 cumulative IPC: 1.606 (Simulation time: 04 hr 46 min 42 sec)
Heartbeat CPU 0 instructions: 530000001 cycles: 313816202 heartbeat IPC: 1.143 cumulative IPC: 1.593 (Simulation time: 04 hr 54 min 20 sec)
Heartbeat CPU 0 instructions: 540000000 cycles: 324858286 heartbeat IPC: 0.9056 cumulative IPC: 1.569 (Simulation time: 05 hr 03 min 52 sec)
Heartbeat CPU 0 instructions: 550000002 cycles: 339137487 heartbeat IPC: 0.7003 cumulative IPC: 1.531 (Simulation time: 05 hr 14 min 46 sec)
Heartbeat CPU 0 instructions: 560000004 cycles: 344177852 heartbeat IPC: 1.984 cumulative IPC: 1.538 (Simulation time: 05 hr 20 min 06 sec)
Heartbeat CPU 0 instructions: 570000001 cycles: 348595059 heartbeat IPC: 2.264 cumulative IPC: 1.547 (Simulation time: 05 hr 24 min 57 sec)
Heartbeat CPU 0 instructions: 580000003 cycles: 352837031 heartbeat IPC: 2.357 cumulative IPC: 1.557 (Simulation time: 05 hr 29 min 47 sec)
Heartbeat CPU 0 instructions: 590000001 cycles: 357745221 heartbeat IPC: 2.037 cumulative IPC: 1.564 (Simulation time: 05 hr 34 min 52 sec)
Heartbeat CPU 0 instructions: 600000003 cycles: 362384894 heartbeat IPC: 2.155 cumulative IPC: 1.572 (Simulation time: 05 hr 39 min 41 sec)
Heartbeat CPU 0 instructions: 610000001 cycles: 367253453 heartbeat IPC: 2.054 cumulative IPC: 1.579 (Simulation time: 05 hr 44 min 43 sec)
Heartbeat CPU 0 instructions: 620000000 cycles: 372323510 heartbeat IPC: 1.972 cumulative IPC: 1.584 (Simulation time: 05 hr 49 min 37 sec)
Heartbeat CPU 0 instructions: 630000002 cycles: 376569546 heartbeat IPC: 2.355 cumulative IPC: 1.593 (Simulation time: 05 hr 53 min 56 sec)
Heartbeat CPU 0 instructions: 640000004 cycles: 381885524 heartbeat IPC: 1.881 cumulative IPC: 1.597 (Simulation time: 05 hr 58 min 34 sec)
Heartbeat CPU 0 instructions: 650000001 cycles: 386641615 heartbeat IPC: 2.103 cumulative IPC: 1.604 (Simulation time: 06 hr 02 min 49 sec)
Simulation finished CPU 0 instructions: 600000001 cycles: 374141554 cumulative IPC: 1.604 (Simulation time: 06 hr 02 min 49 sec)
Simulation complete CPU 0 instructions: 600000001 cycles: 374141554 cumulative IPC: 1.604 (Simulation time: 06 hr 02 min 49 sec)

ChampSim completed all CPUs

=== Simulation ===
CPU 0 runs traces/400.perlbench-50B.champsimtrace.xz
Region of Interest Statistics

CPU 0 cumulative IPC: 1.604 instructions: 600000001 cycles: 374141554
CPU 0 Branch Prediction Accuracy: 93.83% MPKI: 12.71 Average ROB Occupancy at Mispredict: 29.53
Branch type MPKI
BRANCH_DIRECT_JUMP: 0.0176
BRANCH_INDIRECT: 0.38
BRANCH_CONDITIONAL: 11.9
BRANCH_DIRECT_CALL: 0.0067
BRANCH_INDIRECT_CALL: 0.431
BRANCH_RETURN: 0.0161

LLC TOTAL        ACCESS:    1378270 HIT:     889939 MISS:     488331
LLC LOAD         ACCESS:     589631 HIT:     385644 MISS:     203987
LLC RFO          ACCESS:      48202 HIT:      27744 MISS:      20458
LLC PREFETCH     ACCESS:     589631 HIT:     373539 MISS:     216092
LLC WRITE        ACCESS:     128717 HIT:      97570 MISS:      31147
LLC TRANSLATION  ACCESS:      22089 HIT:       5442 MISS:      16647
LLC PREFETCH REQUESTED:     589631 ISSUED:     589631 USEFUL:      74676 USELESS:      84700
LLC AVERAGE MISS LATENCY: 492.8 cycles
cpu0_DTLB TOTAL        ACCESS:  156764818 HIT:  155462238 MISS:    1302580
cpu0_DTLB LOAD         ACCESS:  156764818 HIT:  155462238 MISS:    1302580
cpu0_DTLB RFO          ACCESS:          0 HIT:          0 MISS:          0
cpu0_DTLB PREFETCH     ACCESS:          0 HIT:          0 MISS:          0
cpu0_DTLB WRITE        ACCESS:          0 HIT:          0 MISS:          0
cpu0_DTLB TRANSLATION  ACCESS:          0 HIT:          0 MISS:          0
cpu0_DTLB PREFETCH REQUESTED:          0 ISSUED:          0 USEFUL:          0 USELESS:          0
cpu0_DTLB AVERAGE MISS LATENCY: 14.35 cycles
cpu0_ITLB TOTAL        ACCESS:    8931157 HIT:    8732595 MISS:     198562
cpu0_ITLB LOAD         ACCESS:    8931157 HIT:    8732595 MISS:     198562
cpu0_ITLB RFO          ACCESS:          0 HIT:          0 MISS:          0
cpu0_ITLB PREFETCH     ACCESS:          0 HIT:          0 MISS:          0
cpu0_ITLB WRITE        ACCESS:          0 HIT:          0 MISS:          0
cpu0_ITLB TRANSLATION  ACCESS:          0 HIT:          0 MISS:          0
cpu0_ITLB PREFETCH REQUESTED:          0 ISSUED:          0 USEFUL:          0 USELESS:          0
cpu0_ITLB AVERAGE MISS LATENCY: 3.747 cycles
cpu0_L1D TOTAL        ACCESS:  203610309 HIT:  199938015 MISS:    3672294
cpu0_L1D LOAD         ACCESS:  117932830 HIT:  114913240 MISS:    3019590
cpu0_L1D RFO          ACCESS:          0 HIT:          0 MISS:          0
cpu0_L1D PREFETCH     ACCESS:          0 HIT:          0 MISS:          0
cpu0_L1D WRITE        ACCESS:   85648940 HIT:   85023376 MISS:     625564
cpu0_L1D TRANSLATION  ACCESS:      28539 HIT:       1399 MISS:      27140
cpu0_L1D PREFETCH REQUESTED:          0 ISSUED:          0 USEFUL:          0 USELESS:          0
cpu0_L1D AVERAGE MISS LATENCY: 40.55 cycles
cpu0_L1I TOTAL        ACCESS:   10370143 HIT:    8573501 MISS:    1796642
cpu0_L1I LOAD         ACCESS:   10370143 HIT:    8573501 MISS:    1796642
cpu0_L1I RFO          ACCESS:          0 HIT:          0 MISS:          0
cpu0_L1I PREFETCH     ACCESS:          0 HIT:          0 MISS:          0
cpu0_L1I WRITE        ACCESS:          0 HIT:          0 MISS:          0
cpu0_L1I TRANSLATION  ACCESS:          0 HIT:          0 MISS:          0
cpu0_L1I PREFETCH REQUESTED:          0 ISSUED:          0 USEFUL:          0 USELESS:          0
cpu0_L1I AVERAGE MISS LATENCY: 15.2 cycles
cpu0_L2C TOTAL        ACCESS:    3837158 HIT:    3173826 MISS:     663332
cpu0_L2C LOAD         ACCESS:    3106436 HIT:    2516805 MISS:     589631
cpu0_L2C RFO          ACCESS:     191817 HIT:     143615 MISS:      48202
cpu0_L2C PREFETCH     ACCESS:          0 HIT:          0 MISS:          0
cpu0_L2C WRITE        ACCESS:     511847 HIT:     508437 MISS:       3410
cpu0_L2C TRANSLATION  ACCESS:      27058 HIT:       4969 MISS:      22089
cpu0_L2C PREFETCH REQUESTED:          0 ISSUED:          0 USEFUL:          0 USELESS:          0
cpu0_L2C AVERAGE MISS LATENCY: 225.9 cycles
cpu0_STLB TOTAL        ACCESS:    1009274 HIT:     982584 MISS:      26690
cpu0_STLB LOAD         ACCESS:    1009274 HIT:     982584 MISS:      26690
cpu0_STLB RFO          ACCESS:          0 HIT:          0 MISS:          0
cpu0_STLB PREFETCH     ACCESS:          0 HIT:          0 MISS:          0
cpu0_STLB WRITE        ACCESS:          0 HIT:          0 MISS:          0
cpu0_STLB TRANSLATION  ACCESS:          0 HIT:          0 MISS:          0
cpu0_STLB PREFETCH REQUESTED:          0 ISSUED:          0 USEFUL:          0 USELESS:          0
cpu0_STLB AVERAGE MISS LATENCY: 487.1 cycles

DRAM Statistics

Channel 0 RQ ROW_BUFFER_HIT:      65748
  ROW_BUFFER_MISS:     331213
 AVG DBUS CONGESTED CYCLE: 3.86
WQ ROW_BUFFER_HIT: Channel 0 
  ROW_BUFFER_MISS:       9344
  FULL:      41398
