WARNING: physical memory size is smaller than virtual memory size.

*** ChampSim Multicore Out-of-Order Simulator ***
Warmup Instructions: 50000000
Simulation Instructions: 600000000
Number of CPUs: 1
Page size: 4096

Off-chip DRAM Size: 4 GiB Channels: 1 Width: 64-bit Data Race: 3200 MT/s
Heartbeat CPU 0 instructions: 10000001 cycles: 2500318 heartbeat IPC: 3.999 cumulative IPC: 3.999 (Simulation time: 00 hr 00 min 47 sec)
Heartbeat CPU 0 instructions: 20000002 cycles: 5037110 heartbeat IPC: 3.942 cumulative IPC: 3.971 (Simulation time: 00 hr 01 min 40 sec)
Heartbeat CPU 0 instructions: 30000002 cycles: 7537110 heartbeat IPC: 4 cumulative IPC: 3.98 (Simulation time: 00 hr 02 min 26 sec)
Heartbeat CPU 0 instructions: 40000002 cycles: 10037110 heartbeat IPC: 4 cumulative IPC: 3.985 (Simulation time: 00 hr 03 min 11 sec)
Heartbeat CPU 0 instructions: 50000002 cycles: 12537110 heartbeat IPC: 4 cumulative IPC: 3.988 (Simulation time: 00 hr 03 min 56 sec)
Warmup finished CPU 0 instructions: 50000002 cycles: 12537111 cumulative IPC: 3.988 (Simulation time: 00 hr 03 min 56 sec)
Warmup complete CPU 0 instructions: 50000002 cycles: 12537111 cumulative IPC: 3.988 (Simulation time: 00 hr 03 min 56 sec)
Heartbeat CPU 0 instructions: 60000000 cycles: 17698268 heartbeat IPC: 1.938 cumulative IPC: 1.938 (Simulation time: 00 hr 05 min 04 sec)
Heartbeat CPU 0 instructions: 70000002 cycles: 22589563 heartbeat IPC: 2.044 cumulative IPC: 1.99 (Simulation time: 00 hr 06 min 13 sec)
Heartbeat CPU 0 instructions: 80000001 cycles: 27948709 heartbeat IPC: 1.866 cumulative IPC: 1.947 (Simulation time: 00 hr 07 min 24 sec)
Heartbeat CPU 0 instructions: 90000001 cycles: 32825635 heartbeat IPC: 2.05 cumulative IPC: 1.972 (Simulation time: 00 hr 08 min 31 sec)
Heartbeat CPU 0 instructions: 100000000 cycles: 37934478 heartbeat IPC: 1.957 cumulative IPC: 1.969 (Simulation time: 00 hr 09 min 41 sec)
Heartbeat CPU 0 instructions: 110000000 cycles: 42821478 heartbeat IPC: 2.046 cumulative IPC: 1.981 (Simulation time: 00 hr 10 min 49 sec)
Heartbeat CPU 0 instructions: 120000001 cycles: 48006120 heartbeat IPC: 1.929 cumulative IPC: 1.974 (Simulation time: 00 hr 12 min 04 sec)
Heartbeat CPU 0 instructions: 130000001 cycles: 53152201 heartbeat IPC: 1.943 cumulative IPC: 1.97 (Simulation time: 00 hr 13 min 15 sec)
Heartbeat CPU 0 instructions: 140000001 cycles: 58455309 heartbeat IPC: 1.886 cumulative IPC: 1.96 (Simulation time: 00 hr 14 min 26 sec)
Heartbeat CPU 0 instructions: 150000001 cycles: 63772884 heartbeat IPC: 1.881 cumulative IPC: 1.952 (Simulation time: 00 hr 15 min 41 sec)
Heartbeat CPU 0 instructions: 160000004 cycles: 68968461 heartbeat IPC: 1.925 cumulative IPC: 1.949 (Simulation time: 00 hr 16 min 53 sec)
Heartbeat CPU 0 instructions: 170000000 cycles: 78736785 heartbeat IPC: 1.024 cumulative IPC: 1.813 (Simulation time: 00 hr 18 min 40 sec)
Heartbeat CPU 0 instructions: 180000004 cycles: 88753204 heartbeat IPC: 0.9984 cumulative IPC: 1.706 (Simulation time: 00 hr 20 min 33 sec)
Heartbeat CPU 0 instructions: 190000001 cycles: 98997341 heartbeat IPC: 0.9762 cumulative IPC: 1.619 (Simulation time: 00 hr 22 min 30 sec)
Heartbeat CPU 0 instructions: 200000003 cycles: 103744134 heartbeat IPC: 2.107 cumulative IPC: 1.645 (Simulation time: 00 hr 23 min 39 sec)
Heartbeat CPU 0 instructions: 210000001 cycles: 108656291 heartbeat IPC: 2.036 cumulative IPC: 1.665 (Simulation time: 00 hr 24 min 53 sec)
Heartbeat CPU 0 instructions: 220000000 cycles: 113479120 heartbeat IPC: 2.073 cumulative IPC: 1.684 (Simulation time: 00 hr 26 min 03 sec)
Heartbeat CPU 0 instructions: 230000002 cycles: 118768619 heartbeat IPC: 1.891 cumulative IPC: 1.694 (Simulation time: 00 hr 27 min 14 sec)
Heartbeat CPU 0 instructions: 240000000 cycles: 123596385 heartbeat IPC: 2.071 cumulative IPC: 1.711 (Simulation time: 00 hr 28 min 27 sec)
Heartbeat CPU 0 instructions: 250000000 cycles: 128739136 heartbeat IPC: 1.944 cumulative IPC: 1.721 (Simulation time: 00 hr 29 min 37 sec)
Heartbeat CPU 0 instructions: 260000000 cycles: 133753331 heartbeat IPC: 1.994 cumulative IPC: 1.732 (Simulation time: 00 hr 30 min 50 sec)
Heartbeat CPU 0 instructions: 270000002 cycles: 138625396 heartbeat IPC: 2.053 cumulative IPC: 1.745 (Simulation time: 00 hr 31 min 59 sec)
Heartbeat CPU 0 instructions: 280000002 cycles: 143527737 heartbeat IPC: 2.04 cumulative IPC: 1.756 (Simulation time: 00 hr 33 min 05 sec)
Heartbeat CPU 0 instructions: 290000001 cycles: 148885607 heartbeat IPC: 1.866 cumulative IPC: 1.76 (Simulation time: 00 hr 34 min 21 sec)
Heartbeat CPU 0 instructions: 300000003 cycles: 153926102 heartbeat IPC: 1.984 cumulative IPC: 1.768 (Simulation time: 00 hr 35 min 32 sec)
Heartbeat CPU 0 instructions: 310000001 cycles: 159203034 heartbeat IPC: 1.895 cumulative IPC: 1.773 (Simulation time: 00 hr 36 min 42 sec)
Heartbeat CPU 0 instructions: 320000003 cycles: 164402780 heartbeat IPC: 1.923 cumulative IPC: 1.778 (Simulation time: 00 hr 37 min 57 sec)
Heartbeat CPU 0 instructions: 330000003 cycles: 169677317 heartbeat IPC: 1.896 cumulative IPC: 1.782 (Simulation time: 00 hr 39 min 06 sec)
Heartbeat CPU 0 instructions: 340000000 cycles: 179567917 heartbeat IPC: 1.011 cumulative IPC: 1.736 (Simulation time: 00 hr 40 min 55 sec)
Heartbeat CPU 0 instructions: 350000000 cycles: 190154837 heartbeat IPC: 0.9446 cumulative IPC: 1.689 (Simulation time: 00 hr 42 min 53 sec)
Heartbeat CPU 0 instructions: 360000004 cycles: 200408778 heartbeat IPC: 0.9752 cumulative IPC: 1.65 (Simulation time: 00 hr 44 min 50 sec)
Heartbeat CPU 0 instructions: 370000000 cycles: 204814492 heartbeat IPC: 2.27 cumulative IPC: 1.664 (Simulation time: 00 hr 45 min 55 sec)
Heartbeat CPU 0 instructions: 380000001 cycles: 209728778 heartbeat IPC: 2.035 cumulative IPC: 1.673 (Simulation time: 00 hr 47 min 04 sec)
Heartbeat CPU 0 instructions: 390000002 cycles: 214545470 heartbeat IPC: 2.076 cumulative IPC: 1.683 (Simulation time: 00 hr 48 min 13 sec)
Heartbeat CPU 0 instructions: 400000004 cycles: 219478959 heartbeat IPC: 2.027 cumulative IPC: 1.691 (Simulation time: 00 hr 49 min 22 sec)
Heartbeat CPU 0 instructions: 410000000 cycles: 224194349 heartbeat IPC: 2.121 cumulative IPC: 1.701 (Simulation time: 00 hr 50 min 29 sec)
Heartbeat CPU 0 instructions: 420000000 cycles: 229265490 heartbeat IPC: 1.972 cumulative IPC: 1.707 (Simulation time: 00 hr 51 min 33 sec)
Heartbeat CPU 0 instructions: 430000001 cycles: 233718934 heartbeat IPC: 2.245 cumulative IPC: 1.718 (Simulation time: 00 hr 52 min 34 sec)
Heartbeat CPU 0 instructions: 440000000 cycles: 239067630 heartbeat IPC: 1.87 cumulative IPC: 1.722 (Simulation time: 00 hr 53 min 40 sec)
Heartbeat CPU 0 instructions: 450000002 cycles: 243730062 heartbeat IPC: 2.145 cumulative IPC: 1.73 (Simulation time: 00 hr 54 min 42 sec)
Heartbeat CPU 0 instructions: 460000000 cycles: 248515208 heartbeat IPC: 2.09 cumulative IPC: 1.737 (Simulation time: 00 hr 55 min 48 sec)
Heartbeat CPU 0 instructions: 470000000 cycles: 253485453 heartbeat IPC: 2.012 cumulative IPC: 1.743 (Simulation time: 00 hr 56 min 53 sec)
Heartbeat CPU 0 instructions: 480000003 cycles: 258260516 heartbeat IPC: 2.094 cumulative IPC: 1.75 (Simulation time: 00 hr 57 min 56 sec)
Heartbeat CPU 0 instructions: 490000000 cycles: 262866362 heartbeat IPC: 2.171 cumulative IPC: 1.758 (Simulation time: 00 hr 58 min 58 sec)
Heartbeat CPU 0 instructions: 500000000 cycles: 267880538 heartbeat IPC: 1.994 cumulative IPC: 1.762 (Simulation time: 01 hr 00 min 03 sec)
Heartbeat CPU 0 instructions: 510000003 cycles: 273482291 heartbeat IPC: 1.785 cumulative IPC: 1.763 (Simulation time: 01 hr 01 min 16 sec)
Heartbeat CPU 0 instructions: 520000001 cycles: 278165574 heartbeat IPC: 2.135 cumulative IPC: 1.769 (Simulation time: 01 hr 02 min 24 sec)
Heartbeat CPU 0 instructions: 530000002 cycles: 283291500 heartbeat IPC: 1.951 cumulative IPC: 1.773 (Simulation time: 01 hr 03 min 34 sec)
Heartbeat CPU 0 instructions: 540000000 cycles: 288399824 heartbeat IPC: 1.958 cumulative IPC: 1.776 (Simulation time: 01 hr 04 min 44 sec)
Heartbeat CPU 0 instructions: 550000001 cycles: 293196418 heartbeat IPC: 2.085 cumulative IPC: 1.782 (Simulation time: 01 hr 05 min 53 sec)
Heartbeat CPU 0 instructions: 560000000 cycles: 298391348 heartbeat IPC: 1.925 cumulative IPC: 1.784 (Simulation time: 01 hr 07 min 03 sec)
Heartbeat CPU 0 instructions: 570000004 cycles: 305292555 heartbeat IPC: 1.449 cumulative IPC: 1.776 (Simulation time: 01 hr 08 min 32 sec)
Heartbeat CPU 0 instructions: 580000003 cycles: 316457906 heartbeat IPC: 0.8956 cumulative IPC: 1.744 (Simulation time: 01 hr 10 min 40 sec)
Heartbeat CPU 0 instructions: 590000002 cycles: 329056325 heartbeat IPC: 0.7938 cumulative IPC: 1.706 (Simulation time: 01 hr 13 min 02 sec)
Heartbeat CPU 0 instructions: 600000000 cycles: 333582319 heartbeat IPC: 2.209 cumulative IPC: 1.713 (Simulation time: 01 hr 14 min 06 sec)
Heartbeat CPU 0 instructions: 610000002 cycles: 338069641 heartbeat IPC: 2.229 cumulative IPC: 1.72 (Simulation time: 01 hr 15 min 17 sec)
Heartbeat CPU 0 instructions: 620000000 cycles: 342868898 heartbeat IPC: 2.084 cumulative IPC: 1.726 (Simulation time: 01 hr 16 min 31 sec)
Heartbeat CPU 0 instructions: 630000002 cycles: 347948712 heartbeat IPC: 1.969 cumulative IPC: 1.729 (Simulation time: 01 hr 17 min 46 sec)
Heartbeat CPU 0 instructions: 640000001 cycles: 352798231 heartbeat IPC: 2.062 cumulative IPC: 1.734 (Simulation time: 01 hr 19 min 00 sec)
Heartbeat CPU 0 instructions: 650000000 cycles: 357353223 heartbeat IPC: 2.195 cumulative IPC: 1.74 (Simulation time: 01 hr 20 min 12 sec)
Simulation finished CPU 0 instructions: 600000001 cycles: 344816114 cumulative IPC: 1.74 (Simulation time: 01 hr 20 min 12 sec)
Simulation complete CPU 0 instructions: 600000001 cycles: 344816114 cumulative IPC: 1.74 (Simulation time: 01 hr 20 min 12 sec)

ChampSim completed all CPUs

=== Simulation ===
CPU 0 runs traces/400.perlbench-41B.champsimtrace.xz
Region of Interest Statistics

CPU 0 cumulative IPC: 1.74 instructions: 600000001 cycles: 344816114
CPU 0 Branch Prediction Accuracy: 93.95% MPKI: 12.5 Average ROB Occupancy at Mispredict: 29.62
Branch type MPKI
BRANCH_DIRECT_JUMP: 0.0123
BRANCH_INDIRECT: 0.323
BRANCH_CONDITIONAL: 12
BRANCH_DIRECT_CALL: 0.0043
BRANCH_INDIRECT_CALL: 0.2
BRANCH_RETURN: 0.00828

LLC TOTAL        ACCESS:     594971 HIT:     341366 MISS:     253605
LLC LOAD         ACCESS:     403200 HIT:     198818 MISS:     204382
LLC RFO          ACCESS:      32568 HIT:      18876 MISS:      13692
LLC PREFETCH     ACCESS:      54622 HIT:      28349 MISS:      26273
LLC WRITE        ACCESS:      85572 HIT:      85421 MISS:        151
LLC TRANSLATION  ACCESS:      19009 HIT:       9902 MISS:       9107
LLC PREFETCH REQUESTED:      54622 ISSUED:      54622 USEFUL:      16643 USELESS:       6145
LLC AVERAGE MISS LATENCY: 562.7 cycles
cpu0_DTLB TOTAL        ACCESS:  153684736 HIT:  153007190 MISS:     677546
cpu0_DTLB LOAD         ACCESS:  153684736 HIT:  153007190 MISS:     677546
cpu0_DTLB RFO          ACCESS:          0 HIT:          0 MISS:          0
cpu0_DTLB PREFETCH     ACCESS:          0 HIT:          0 MISS:          0
cpu0_DTLB WRITE        ACCESS:          0 HIT:          0 MISS:          0
cpu0_DTLB TRANSLATION  ACCESS:          0 HIT:          0 MISS:          0
cpu0_DTLB PREFETCH REQUESTED:          0 ISSUED:          0 USEFUL:          0 USELESS:          0
cpu0_DTLB AVERAGE MISS LATENCY: 14.6 cycles
cpu0_ITLB TOTAL        ACCESS:    4836968 HIT:    4779119 MISS:      57849
cpu0_ITLB LOAD         ACCESS:    4836968 HIT:    4779119 MISS:      57849
cpu0_ITLB RFO          ACCESS:          0 HIT:          0 MISS:          0
cpu0_ITLB PREFETCH     ACCESS:          0 HIT:          0 MISS:          0
cpu0_ITLB WRITE        ACCESS:          0 HIT:          0 MISS:          0
cpu0_ITLB TRANSLATION  ACCESS:          0 HIT:          0 MISS:          0
cpu0_ITLB PREFETCH REQUESTED:          0 ISSUED:          0 USEFUL:          0 USELESS:          0
cpu0_ITLB AVERAGE MISS LATENCY: 6.977 cycles
cpu0_L1D TOTAL        ACCESS:  200295683 HIT:  198565025 MISS:    1730658
cpu0_L1D LOAD         ACCESS:  117053311 HIT:  115705917 MISS:    1347394
cpu0_L1D RFO          ACCESS:          0 HIT:          0 MISS:          0
cpu0_L1D PREFETCH     ACCESS:          0 HIT:          0 MISS:          0
cpu0_L1D WRITE        ACCESS:   83217907 HIT:   82858070 MISS:     359837
cpu0_L1D TRANSLATION  ACCESS:      24465 HIT:       1038 MISS:      23427
cpu0_L1D PREFETCH REQUESTED:          0 ISSUED:          0 USEFUL:          0 USELESS:          0
cpu0_L1D AVERAGE MISS LATENCY: 79.01 cycles
cpu0_L1I TOTAL        ACCESS:    5579477 HIT:    4817896 MISS:     761581
cpu0_L1I LOAD         ACCESS:    5579477 HIT:    4817896 MISS:     761581
cpu0_L1I RFO          ACCESS:          0 HIT:          0 MISS:          0
cpu0_L1I PREFETCH     ACCESS:          0 HIT:          0 MISS:          0
cpu0_L1I WRITE        ACCESS:          0 HIT:          0 MISS:          0
cpu0_L1I TRANSLATION  ACCESS:          0 HIT:          0 MISS:          0
cpu0_L1I PREFETCH REQUESTED:          0 ISSUED:          0 USEFUL:          0 USELESS:          0
cpu0_L1I AVERAGE MISS LATENCY: 11.65 cycles
cpu0_L2C TOTAL        ACCESS:    1667947 HIT:    1211387 MISS:     456560
cpu0_L2C LOAD         ACCESS:    1317077 HIT:     913877 MISS:     403200
cpu0_L2C RFO          ACCESS:      88626 HIT:      56058 MISS:      32568
cpu0_L2C PREFETCH     ACCESS:          0 HIT:          0 MISS:          0
cpu0_L2C WRITE        ACCESS:     238898 HIT:     237115 MISS:       1783
cpu0_L2C TRANSLATION  ACCESS:      23346 HIT:       4337 MISS:      19009
cpu0_L2C PREFETCH REQUESTED:          0 ISSUED:          0 USEFUL:          0 USELESS:          0
cpu0_L2C AVERAGE MISS LATENCY: 297.6 cycles
cpu0_STLB TOTAL        ACCESS:     505196 HIT:     482405 MISS:      22791
cpu0_STLB LOAD         ACCESS:     505196 HIT:     482405 MISS:      22791
cpu0_STLB RFO          ACCESS:          0 HIT:          0 MISS:          0
cpu0_STLB PREFETCH     ACCESS:          0 HIT:          0 MISS:          0
cpu0_STLB WRITE        ACCESS:          0 HIT:          0 MISS:          0
cpu0_STLB TRANSLATION  ACCESS:          0 HIT:          0 MISS:          0
cpu0_STLB PREFETCH REQUESTED:          0 ISSUED:          0 USEFUL:          0 USELESS:          0
cpu0_STLB AVERAGE MISS LATENCY: 310.4 cycles

DRAM Statistics

Channel 0 RQ ROW_BUFFER_HIT:      45416
  ROW_BUFFER_MISS:     203102
 AVG DBUS CONGESTED CYCLE: 3.811
WQ ROW_BUFFER_HIT: Channel 0 
  ROW_BUFFER_MISS:       7500
  FULL:      28044
