WARNING: physical memory size is smaller than virtual memory size.

*** ChampSim Multicore Out-of-Order Simulator ***
Warmup Instructions: 50000000
Simulation Instructions: 600000000
Number of CPUs: 1
Page size: 4096

CPU 0 Tage branch predictor
Off-chip DRAM Size: 4 GiB Channels: 1 Width: 64-bit Data Race: 3200 MT/s
Heartbeat CPU 0 instructions: 10000001 cycles: 2500318 heartbeat IPC: 3.999 cumulative IPC: 3.999 (Simulation time: 00 hr 00 min 57 sec)
Heartbeat CPU 0 instructions: 20000002 cycles: 5037133 heartbeat IPC: 3.942 cumulative IPC: 3.971 (Simulation time: 00 hr 01 min 59 sec)
Heartbeat CPU 0 instructions: 30000002 cycles: 7537133 heartbeat IPC: 4 cumulative IPC: 3.98 (Simulation time: 00 hr 02 min 55 sec)
Heartbeat CPU 0 instructions: 40000002 cycles: 10037133 heartbeat IPC: 4 cumulative IPC: 3.985 (Simulation time: 00 hr 03 min 50 sec)
Heartbeat CPU 0 instructions: 50000002 cycles: 12537133 heartbeat IPC: 4 cumulative IPC: 3.988 (Simulation time: 00 hr 04 min 50 sec)
Warmup finished CPU 0 instructions: 50000002 cycles: 12537134 cumulative IPC: 3.988 (Simulation time: 00 hr 04 min 50 sec)
Warmup complete CPU 0 instructions: 50000002 cycles: 12537134 cumulative IPC: 3.988 (Simulation time: 00 hr 04 min 50 sec)
Heartbeat CPU 0 instructions: 60000001 cycles: 15503774 heartbeat IPC: 3.371 cumulative IPC: 3.371 (Simulation time: 00 hr 05 min 58 sec)
Heartbeat CPU 0 instructions: 70000004 cycles: 18571616 heartbeat IPC: 3.26 cumulative IPC: 3.314 (Simulation time: 00 hr 07 min 08 sec)
Heartbeat CPU 0 instructions: 80000001 cycles: 21614011 heartbeat IPC: 3.287 cumulative IPC: 3.305 (Simulation time: 00 hr 08 min 20 sec)
Heartbeat CPU 0 instructions: 90000001 cycles: 24554702 heartbeat IPC: 3.401 cumulative IPC: 3.328 (Simulation time: 00 hr 09 min 35 sec)
Heartbeat CPU 0 instructions: 100000000 cycles: 27461075 heartbeat IPC: 3.441 cumulative IPC: 3.35 (Simulation time: 00 hr 10 min 37 sec)
Heartbeat CPU 0 instructions: 110000000 cycles: 30401429 heartbeat IPC: 3.401 cumulative IPC: 3.359 (Simulation time: 00 hr 11 min 39 sec)
Heartbeat CPU 0 instructions: 120000001 cycles: 33370650 heartbeat IPC: 3.368 cumulative IPC: 3.36 (Simulation time: 00 hr 12 min 39 sec)
Heartbeat CPU 0 instructions: 130000001 cycles: 36221025 heartbeat IPC: 3.508 cumulative IPC: 3.378 (Simulation time: 00 hr 13 min 39 sec)
Heartbeat CPU 0 instructions: 140000001 cycles: 39255469 heartbeat IPC: 3.295 cumulative IPC: 3.368 (Simulation time: 00 hr 14 min 36 sec)
Heartbeat CPU 0 instructions: 150000001 cycles: 42257299 heartbeat IPC: 3.331 cumulative IPC: 3.365 (Simulation time: 00 hr 15 min 34 sec)
Heartbeat CPU 0 instructions: 160000004 cycles: 45260768 heartbeat IPC: 3.329 cumulative IPC: 3.361 (Simulation time: 00 hr 16 min 30 sec)
Heartbeat CPU 0 instructions: 170000000 cycles: 51877052 heartbeat IPC: 1.511 cumulative IPC: 3.05 (Simulation time: 00 hr 17 min 55 sec)
Heartbeat CPU 0 instructions: 180000004 cycles: 58815353 heartbeat IPC: 1.441 cumulative IPC: 2.809 (Simulation time: 00 hr 19 min 24 sec)
Heartbeat CPU 0 instructions: 190000001 cycles: 66379285 heartbeat IPC: 1.322 cumulative IPC: 2.6 (Simulation time: 00 hr 20 min 56 sec)
Heartbeat CPU 0 instructions: 200000004 cycles: 69319415 heartbeat IPC: 3.401 cumulative IPC: 2.642 (Simulation time: 00 hr 21 min 53 sec)
Heartbeat CPU 0 instructions: 210000001 cycles: 72263738 heartbeat IPC: 3.396 cumulative IPC: 2.679 (Simulation time: 00 hr 22 min 49 sec)
Heartbeat CPU 0 instructions: 220000000 cycles: 75149885 heartbeat IPC: 3.465 cumulative IPC: 2.715 (Simulation time: 00 hr 23 min 45 sec)
Heartbeat CPU 0 instructions: 230000002 cycles: 78141885 heartbeat IPC: 3.342 cumulative IPC: 2.744 (Simulation time: 00 hr 24 min 43 sec)
Heartbeat CPU 0 instructions: 240000003 cycles: 81158949 heartbeat IPC: 3.314 cumulative IPC: 2.769 (Simulation time: 00 hr 25 min 41 sec)
Heartbeat CPU 0 instructions: 250000000 cycles: 84169785 heartbeat IPC: 3.321 cumulative IPC: 2.792 (Simulation time: 00 hr 26 min 38 sec)
Heartbeat CPU 0 instructions: 260000002 cycles: 87118960 heartbeat IPC: 3.391 cumulative IPC: 2.816 (Simulation time: 00 hr 27 min 35 sec)
Heartbeat CPU 0 instructions: 270000002 cycles: 90013018 heartbeat IPC: 3.455 cumulative IPC: 2.84 (Simulation time: 00 hr 28 min 31 sec)
Heartbeat CPU 0 instructions: 280000002 cycles: 92888118 heartbeat IPC: 3.478 cumulative IPC: 2.862 (Simulation time: 00 hr 29 min 28 sec)
Heartbeat CPU 0 instructions: 290000002 cycles: 95839018 heartbeat IPC: 3.389 cumulative IPC: 2.881 (Simulation time: 00 hr 30 min 25 sec)
Heartbeat CPU 0 instructions: 300000003 cycles: 98713509 heartbeat IPC: 3.479 cumulative IPC: 2.901 (Simulation time: 00 hr 31 min 22 sec)
Heartbeat CPU 0 instructions: 310000001 cycles: 101729185 heartbeat IPC: 3.316 cumulative IPC: 2.915 (Simulation time: 00 hr 32 min 20 sec)
Heartbeat CPU 0 instructions: 320000003 cycles: 104720724 heartbeat IPC: 3.343 cumulative IPC: 2.929 (Simulation time: 00 hr 33 min 17 sec)
Heartbeat CPU 0 instructions: 330000003 cycles: 107682193 heartbeat IPC: 3.377 cumulative IPC: 2.943 (Simulation time: 00 hr 34 min 15 sec)
Heartbeat CPU 0 instructions: 340000000 cycles: 114252917 heartbeat IPC: 1.522 cumulative IPC: 2.851 (Simulation time: 00 hr 35 min 39 sec)
Heartbeat CPU 0 instructions: 350000000 cycles: 121360697 heartbeat IPC: 1.407 cumulative IPC: 2.757 (Simulation time: 00 hr 37 min 10 sec)
Heartbeat CPU 0 instructions: 360000004 cycles: 128950031 heartbeat IPC: 1.318 cumulative IPC: 2.663 (Simulation time: 00 hr 38 min 42 sec)
Heartbeat CPU 0 instructions: 370000000 cycles: 131906747 heartbeat IPC: 3.382 cumulative IPC: 2.681 (Simulation time: 00 hr 39 min 40 sec)
Heartbeat CPU 0 instructions: 380000003 cycles: 134810369 heartbeat IPC: 3.444 cumulative IPC: 2.699 (Simulation time: 00 hr 40 min 36 sec)
Heartbeat CPU 0 instructions: 390000002 cycles: 137779967 heartbeat IPC: 3.367 cumulative IPC: 2.715 (Simulation time: 00 hr 41 min 33 sec)
Heartbeat CPU 0 instructions: 400000004 cycles: 140678532 heartbeat IPC: 3.45 cumulative IPC: 2.731 (Simulation time: 00 hr 42 min 30 sec)
Heartbeat CPU 0 instructions: 410000002 cycles: 143604672 heartbeat IPC: 3.417 cumulative IPC: 2.747 (Simulation time: 00 hr 43 min 27 sec)
Heartbeat CPU 0 instructions: 420000003 cycles: 146661606 heartbeat IPC: 3.271 cumulative IPC: 2.759 (Simulation time: 00 hr 44 min 24 sec)
Heartbeat CPU 0 instructions: 430000001 cycles: 149656397 heartbeat IPC: 3.339 cumulative IPC: 2.771 (Simulation time: 00 hr 45 min 21 sec)
Heartbeat CPU 0 instructions: 440000004 cycles: 152778039 heartbeat IPC: 3.203 cumulative IPC: 2.781 (Simulation time: 00 hr 46 min 20 sec)
Heartbeat CPU 0 instructions: 450000002 cycles: 155686369 heartbeat IPC: 3.438 cumulative IPC: 2.794 (Simulation time: 00 hr 47 min 16 sec)
Heartbeat CPU 0 instructions: 460000000 cycles: 158604401 heartbeat IPC: 3.427 cumulative IPC: 2.807 (Simulation time: 00 hr 48 min 13 sec)
Heartbeat CPU 0 instructions: 470000001 cycles: 161445102 heartbeat IPC: 3.52 cumulative IPC: 2.821 (Simulation time: 00 hr 49 min 09 sec)
Heartbeat CPU 0 instructions: 480000003 cycles: 164475050 heartbeat IPC: 3.3 cumulative IPC: 2.83 (Simulation time: 00 hr 50 min 06 sec)
Heartbeat CPU 0 instructions: 490000004 cycles: 167299311 heartbeat IPC: 3.541 cumulative IPC: 2.843 (Simulation time: 00 hr 51 min 02 sec)
Heartbeat CPU 0 instructions: 500000004 cycles: 170273132 heartbeat IPC: 3.363 cumulative IPC: 2.853 (Simulation time: 00 hr 51 min 59 sec)
Heartbeat CPU 0 instructions: 510000003 cycles: 173271455 heartbeat IPC: 3.335 cumulative IPC: 2.862 (Simulation time: 00 hr 52 min 58 sec)
Heartbeat CPU 0 instructions: 520000001 cycles: 176144313 heartbeat IPC: 3.481 cumulative IPC: 2.873 (Simulation time: 00 hr 53 min 55 sec)
Heartbeat CPU 0 instructions: 530000001 cycles: 179131143 heartbeat IPC: 3.348 cumulative IPC: 2.881 (Simulation time: 00 hr 54 min 52 sec)
Heartbeat CPU 0 instructions: 540000000 cycles: 182077239 heartbeat IPC: 3.394 cumulative IPC: 2.89 (Simulation time: 00 hr 55 min 49 sec)
Heartbeat CPU 0 instructions: 550000001 cycles: 185048684 heartbeat IPC: 3.365 cumulative IPC: 2.898 (Simulation time: 00 hr 56 min 46 sec)
Heartbeat CPU 0 instructions: 560000000 cycles: 188104762 heartbeat IPC: 3.272 cumulative IPC: 2.905 (Simulation time: 00 hr 57 min 44 sec)
Heartbeat CPU 0 instructions: 570000004 cycles: 192771314 heartbeat IPC: 2.143 cumulative IPC: 2.885 (Simulation time: 00 hr 58 min 54 sec)
Heartbeat CPU 0 instructions: 580000003 cycles: 200378363 heartbeat IPC: 1.315 cumulative IPC: 2.822 (Simulation time: 01 hr 00 min 28 sec)
Heartbeat CPU 0 instructions: 590000002 cycles: 209417754 heartbeat IPC: 1.106 cumulative IPC: 2.743 (Simulation time: 01 hr 02 min 11 sec)
Heartbeat CPU 0 instructions: 600000004 cycles: 212432305 heartbeat IPC: 3.317 cumulative IPC: 2.751 (Simulation time: 01 hr 03 min 07 sec)
Heartbeat CPU 0 instructions: 610000002 cycles: 215385013 heartbeat IPC: 3.387 cumulative IPC: 2.761 (Simulation time: 01 hr 04 min 02 sec)
Heartbeat CPU 0 instructions: 620000001 cycles: 218148722 heartbeat IPC: 3.618 cumulative IPC: 2.772 (Simulation time: 01 hr 04 min 55 sec)
Heartbeat CPU 0 instructions: 630000002 cycles: 221110964 heartbeat IPC: 3.376 cumulative IPC: 2.781 (Simulation time: 01 hr 05 min 51 sec)
Heartbeat CPU 0 instructions: 640000004 cycles: 224056645 heartbeat IPC: 3.395 cumulative IPC: 2.789 (Simulation time: 01 hr 06 min 45 sec)
Heartbeat CPU 0 instructions: 650000000 cycles: 226801877 heartbeat IPC: 3.643 cumulative IPC: 2.8 (Simulation time: 01 hr 07 min 34 sec)
Simulation finished CPU 0 instructions: 600000001 cycles: 214264745 cumulative IPC: 2.8 (Simulation time: 01 hr 07 min 34 sec)
Simulation complete CPU 0 instructions: 600000001 cycles: 214264745 cumulative IPC: 2.8 (Simulation time: 01 hr 07 min 34 sec)

ChampSim completed all CPUs

=== Simulation ===
CPU 0 runs traces/400.perlbench-41B.champsimtrace.xz
Region of Interest Statistics

CPU 0 cumulative IPC: 2.8 instructions: 600000001 cycles: 214264745
CPU 0 Branch Prediction Accuracy: 99.19% MPKI: 1.684 Average ROB Occupancy at Mispredict: 101.9
Branch type MPKI
BRANCH_DIRECT_JUMP: 0.0123
BRANCH_INDIRECT: 0.323
BRANCH_CONDITIONAL: 1.14
BRANCH_DIRECT_CALL: 0.0043
BRANCH_INDIRECT_CALL: 0.2
BRANCH_RETURN: 0.00828

LLC TOTAL        ACCESS:     540157 HIT:     329504 MISS:     210653
LLC LOAD         ACCESS:     403543 HIT:     211932 MISS:     191611
LLC RFO          ACCESS:      32489 HIT:      21889 MISS:      10600
LLC PREFETCH     ACCESS:          0 HIT:          0 MISS:          0
LLC WRITE        ACCESS:      85074 HIT:      85008 MISS:         66
LLC TRANSLATION  ACCESS:      19051 HIT:      10675 MISS:       8376
LLC PREFETCH REQUESTED:          0 ISSUED:          0 USEFUL:          0 USELESS:          0
LLC AVERAGE MISS LATENCY: 609.2 cycles
cpu0_DTLB TOTAL        ACCESS:  129783005 HIT:  129079035 MISS:     703970
cpu0_DTLB LOAD         ACCESS:  129783005 HIT:  129079035 MISS:     703970
cpu0_DTLB RFO          ACCESS:          0 HIT:          0 MISS:          0
cpu0_DTLB PREFETCH     ACCESS:          0 HIT:          0 MISS:          0
cpu0_DTLB WRITE        ACCESS:          0 HIT:          0 MISS:          0
cpu0_DTLB TRANSLATION  ACCESS:          0 HIT:          0 MISS:          0
cpu0_DTLB PREFETCH REQUESTED:          0 ISSUED:          0 USEFUL:          0 USELESS:          0
cpu0_DTLB AVERAGE MISS LATENCY: 13.15 cycles
cpu0_ITLB TOTAL        ACCESS:    4876318 HIT:    4814208 MISS:      62110
cpu0_ITLB LOAD         ACCESS:    4876318 HIT:    4814208 MISS:      62110
cpu0_ITLB RFO          ACCESS:          0 HIT:          0 MISS:          0
cpu0_ITLB PREFETCH     ACCESS:          0 HIT:          0 MISS:          0
cpu0_ITLB WRITE        ACCESS:          0 HIT:          0 MISS:          0
cpu0_ITLB TRANSLATION  ACCESS:          0 HIT:          0 MISS:          0
cpu0_ITLB PREFETCH REQUESTED:          0 ISSUED:          0 USEFUL:          0 USELESS:          0
cpu0_ITLB AVERAGE MISS LATENCY: 5.775 cycles
cpu0_L1D TOTAL        ACCESS:  174373093 HIT:  172573266 MISS:    1799827
cpu0_L1D LOAD         ACCESS:   91351589 HIT:   89946846 MISS:    1404743
cpu0_L1D RFO          ACCESS:          0 HIT:          0 MISS:          0
cpu0_L1D PREFETCH     ACCESS:          0 HIT:          0 MISS:          0
cpu0_L1D WRITE        ACCESS:   82997042 HIT:   82625355 MISS:     371687
cpu0_L1D TRANSLATION  ACCESS:      24462 HIT:       1065 MISS:      23397
cpu0_L1D PREFETCH REQUESTED:          0 ISSUED:          0 USEFUL:          0 USELESS:          0
cpu0_L1D AVERAGE MISS LATENCY: 73.39 cycles
cpu0_L1I TOTAL        ACCESS:    5655409 HIT:    4850167 MISS:     805242
cpu0_L1I LOAD         ACCESS:    5655409 HIT:    4850167 MISS:     805242
cpu0_L1I RFO          ACCESS:          0 HIT:          0 MISS:          0
cpu0_L1I PREFETCH     ACCESS:          0 HIT:          0 MISS:          0
cpu0_L1I WRITE        ACCESS:          0 HIT:          0 MISS:          0
cpu0_L1I TRANSLATION  ACCESS:          0 HIT:          0 MISS:          0
cpu0_L1I PREFETCH REQUESTED:          0 ISSUED:          0 USEFUL:          0 USELESS:          0
cpu0_L1I AVERAGE MISS LATENCY: 9.098 cycles
cpu0_L2C TOTAL        ACCESS:    1667966 HIT:    1211053 MISS:     456913
cpu0_L2C LOAD         ACCESS:    1315283 HIT:     911740 MISS:     403543
cpu0_L2C RFO          ACCESS:      89616 HIT:      57126 MISS:      32490
cpu0_L2C PREFETCH     ACCESS:          0 HIT:          0 MISS:          0
cpu0_L2C WRITE        ACCESS:     239747 HIT:     237918 MISS:       1829
cpu0_L2C TRANSLATION  ACCESS:      23320 HIT:       4269 MISS:      19051
cpu0_L2C PREFETCH REQUESTED:          0 ISSUED:          0 USEFUL:          0 USELESS:          0
cpu0_L2C AVERAGE MISS LATENCY: 301.3 cycles
cpu0_STLB TOTAL        ACCESS:     509045 HIT:     486258 MISS:      22787
cpu0_STLB LOAD         ACCESS:     509045 HIT:     486258 MISS:      22787
cpu0_STLB RFO          ACCESS:          0 HIT:          0 MISS:          0
cpu0_STLB PREFETCH     ACCESS:          0 HIT:          0 MISS:          0
cpu0_STLB WRITE        ACCESS:          0 HIT:          0 MISS:          0
cpu0_STLB TRANSLATION  ACCESS:          0 HIT:          0 MISS:          0
cpu0_STLB PREFETCH REQUESTED:          0 ISSUED:          0 USEFUL:          0 USELESS:          0
cpu0_STLB AVERAGE MISS LATENCY: 292.6 cycles

DRAM Statistics

Channel 0 RQ ROW_BUFFER_HIT:      43350
  ROW_BUFFER_MISS:     167222
 AVG DBUS CONGESTED CYCLE: 3.812
WQ ROW_BUFFER_HIT: Channel 0 
  ROW_BUFFER_MISS:       4979
  FULL:      20060
