WARNING: physical memory size is smaller than virtual memory size.

*** ChampSim Multicore Out-of-Order Simulator ***
Warmup Instructions: 50000000
Simulation Instructions: 600000000
Number of CPUs: 1
Page size: 4096

Off-chip DRAM Size: 4 GiB Channels: 1 Width: 64-bit Data Race: 3200 MT/s
Heartbeat CPU 0 instructions: 10000001 cycles: 2500318 heartbeat IPC: 3.999 cumulative IPC: 3.999 (Simulation time: 00 hr 00 min 52 sec)
Heartbeat CPU 0 instructions: 20000002 cycles: 5037136 heartbeat IPC: 3.942 cumulative IPC: 3.971 (Simulation time: 00 hr 01 min 49 sec)
Heartbeat CPU 0 instructions: 30000002 cycles: 7537136 heartbeat IPC: 4 cumulative IPC: 3.98 (Simulation time: 00 hr 02 min 36 sec)
Heartbeat CPU 0 instructions: 40000002 cycles: 10037136 heartbeat IPC: 4 cumulative IPC: 3.985 (Simulation time: 00 hr 03 min 25 sec)
Heartbeat CPU 0 instructions: 50000002 cycles: 12537136 heartbeat IPC: 4 cumulative IPC: 3.988 (Simulation time: 00 hr 04 min 13 sec)
Warmup finished CPU 0 instructions: 50000002 cycles: 12537137 cumulative IPC: 3.988 (Simulation time: 00 hr 04 min 13 sec)
Warmup complete CPU 0 instructions: 50000002 cycles: 12537137 cumulative IPC: 3.988 (Simulation time: 00 hr 04 min 13 sec)
Heartbeat CPU 0 instructions: 60000000 cycles: 17126862 heartbeat IPC: 2.179 cumulative IPC: 2.179 (Simulation time: 00 hr 05 min 25 sec)
Heartbeat CPU 0 instructions: 70000004 cycles: 21382371 heartbeat IPC: 2.35 cumulative IPC: 2.261 (Simulation time: 00 hr 06 min 29 sec)
Heartbeat CPU 0 instructions: 80000001 cycles: 25961900 heartbeat IPC: 2.184 cumulative IPC: 2.235 (Simulation time: 00 hr 07 min 34 sec)
Heartbeat CPU 0 instructions: 90000001 cycles: 30077272 heartbeat IPC: 2.43 cumulative IPC: 2.28 (Simulation time: 00 hr 08 min 39 sec)
Heartbeat CPU 0 instructions: 100000000 cycles: 34115915 heartbeat IPC: 2.476 cumulative IPC: 2.317 (Simulation time: 00 hr 09 min 41 sec)
Heartbeat CPU 0 instructions: 110000000 cycles: 38333685 heartbeat IPC: 2.371 cumulative IPC: 2.326 (Simulation time: 00 hr 10 min 42 sec)
Heartbeat CPU 0 instructions: 120000001 cycles: 42329862 heartbeat IPC: 2.502 cumulative IPC: 2.35 (Simulation time: 00 hr 11 min 40 sec)
Heartbeat CPU 0 instructions: 130000001 cycles: 46047986 heartbeat IPC: 2.69 cumulative IPC: 2.387 (Simulation time: 00 hr 12 min 36 sec)
Heartbeat CPU 0 instructions: 140000001 cycles: 50189201 heartbeat IPC: 2.415 cumulative IPC: 2.39 (Simulation time: 00 hr 13 min 34 sec)
Heartbeat CPU 0 instructions: 150000001 cycles: 54366123 heartbeat IPC: 2.394 cumulative IPC: 2.391 (Simulation time: 00 hr 14 min 33 sec)
Heartbeat CPU 0 instructions: 160000004 cycles: 58757735 heartbeat IPC: 2.277 cumulative IPC: 2.38 (Simulation time: 00 hr 15 min 32 sec)
Heartbeat CPU 0 instructions: 170000000 cycles: 67095306 heartbeat IPC: 1.199 cumulative IPC: 2.199 (Simulation time: 00 hr 17 min 00 sec)
Heartbeat CPU 0 instructions: 180000004 cycles: 75808389 heartbeat IPC: 1.148 cumulative IPC: 2.055 (Simulation time: 00 hr 18 min 32 sec)
Heartbeat CPU 0 instructions: 190000001 cycles: 85160288 heartbeat IPC: 1.069 cumulative IPC: 1.928 (Simulation time: 00 hr 20 min 09 sec)
Heartbeat CPU 0 instructions: 200000004 cycles: 88900360 heartbeat IPC: 2.674 cumulative IPC: 1.964 (Simulation time: 00 hr 21 min 05 sec)
Heartbeat CPU 0 instructions: 210000001 cycles: 92789196 heartbeat IPC: 2.571 cumulative IPC: 1.994 (Simulation time: 00 hr 22 min 01 sec)
Heartbeat CPU 0 instructions: 220000000 cycles: 96734446 heartbeat IPC: 2.535 cumulative IPC: 2.019 (Simulation time: 00 hr 22 min 59 sec)
Heartbeat CPU 0 instructions: 230000002 cycles: 101349074 heartbeat IPC: 2.167 cumulative IPC: 2.027 (Simulation time: 00 hr 24 min 02 sec)
Heartbeat CPU 0 instructions: 240000000 cycles: 105509640 heartbeat IPC: 2.404 cumulative IPC: 2.044 (Simulation time: 00 hr 25 min 05 sec)
Heartbeat CPU 0 instructions: 250000000 cycles: 109800090 heartbeat IPC: 2.331 cumulative IPC: 2.056 (Simulation time: 00 hr 26 min 08 sec)
Heartbeat CPU 0 instructions: 260000000 cycles: 113946247 heartbeat IPC: 2.412 cumulative IPC: 2.071 (Simulation time: 00 hr 27 min 11 sec)
Heartbeat CPU 0 instructions: 270000002 cycles: 117767692 heartbeat IPC: 2.617 cumulative IPC: 2.091 (Simulation time: 00 hr 28 min 12 sec)
Heartbeat CPU 0 instructions: 280000002 cycles: 121910885 heartbeat IPC: 2.414 cumulative IPC: 2.103 (Simulation time: 00 hr 29 min 14 sec)
Heartbeat CPU 0 instructions: 290000001 cycles: 125783072 heartbeat IPC: 2.583 cumulative IPC: 2.119 (Simulation time: 00 hr 30 min 16 sec)
Heartbeat CPU 0 instructions: 300000003 cycles: 129565359 heartbeat IPC: 2.644 cumulative IPC: 2.136 (Simulation time: 00 hr 31 min 17 sec)
Heartbeat CPU 0 instructions: 310000001 cycles: 133642663 heartbeat IPC: 2.453 cumulative IPC: 2.147 (Simulation time: 00 hr 32 min 19 sec)
Heartbeat CPU 0 instructions: 320000003 cycles: 137686440 heartbeat IPC: 2.473 cumulative IPC: 2.157 (Simulation time: 00 hr 33 min 22 sec)
Heartbeat CPU 0 instructions: 330000003 cycles: 142038771 heartbeat IPC: 2.298 cumulative IPC: 2.162 (Simulation time: 00 hr 34 min 25 sec)
Heartbeat CPU 0 instructions: 340000000 cycles: 150276149 heartbeat IPC: 1.214 cumulative IPC: 2.105 (Simulation time: 00 hr 35 min 59 sec)
Heartbeat CPU 0 instructions: 350000000 cycles: 159331108 heartbeat IPC: 1.104 cumulative IPC: 2.044 (Simulation time: 00 hr 37 min 45 sec)
Heartbeat CPU 0 instructions: 360000004 cycles: 168699552 heartbeat IPC: 1.067 cumulative IPC: 1.985 (Simulation time: 00 hr 39 min 28 sec)
Heartbeat CPU 0 instructions: 370000000 cycles: 172120969 heartbeat IPC: 2.923 cumulative IPC: 2.005 (Simulation time: 00 hr 40 min 26 sec)
Heartbeat CPU 0 instructions: 380000001 cycles: 175514910 heartbeat IPC: 2.946 cumulative IPC: 2.025 (Simulation time: 00 hr 41 min 24 sec)
Heartbeat CPU 0 instructions: 390000004 cycles: 179243092 heartbeat IPC: 2.682 cumulative IPC: 2.04 (Simulation time: 00 hr 42 min 23 sec)
Heartbeat CPU 0 instructions: 400000004 cycles: 183044492 heartbeat IPC: 2.631 cumulative IPC: 2.053 (Simulation time: 00 hr 43 min 23 sec)
Heartbeat CPU 0 instructions: 410000001 cycles: 186676550 heartbeat IPC: 2.753 cumulative IPC: 2.067 (Simulation time: 00 hr 44 min 22 sec)
Heartbeat CPU 0 instructions: 420000003 cycles: 190641983 heartbeat IPC: 2.522 cumulative IPC: 2.077 (Simulation time: 00 hr 45 min 22 sec)
Heartbeat CPU 0 instructions: 430000001 cycles: 194280593 heartbeat IPC: 2.748 cumulative IPC: 2.091 (Simulation time: 00 hr 46 min 22 sec)
Heartbeat CPU 0 instructions: 440000004 cycles: 198347710 heartbeat IPC: 2.459 cumulative IPC: 2.099 (Simulation time: 00 hr 47 min 24 sec)
Heartbeat CPU 0 instructions: 450000002 cycles: 202056484 heartbeat IPC: 2.696 cumulative IPC: 2.111 (Simulation time: 00 hr 48 min 23 sec)
Heartbeat CPU 0 instructions: 460000000 cycles: 205701875 heartbeat IPC: 2.743 cumulative IPC: 2.123 (Simulation time: 00 hr 49 min 23 sec)
Heartbeat CPU 0 instructions: 470000000 cycles: 209145618 heartbeat IPC: 2.904 cumulative IPC: 2.136 (Simulation time: 00 hr 50 min 21 sec)
Heartbeat CPU 0 instructions: 480000003 cycles: 212931828 heartbeat IPC: 2.641 cumulative IPC: 2.146 (Simulation time: 00 hr 51 min 21 sec)
Heartbeat CPU 0 instructions: 490000000 cycles: 216546395 heartbeat IPC: 2.767 cumulative IPC: 2.157 (Simulation time: 00 hr 52 min 17 sec)
Heartbeat CPU 0 instructions: 500000000 cycles: 220225978 heartbeat IPC: 2.718 cumulative IPC: 2.167 (Simulation time: 00 hr 53 min 15 sec)
Heartbeat CPU 0 instructions: 510000003 cycles: 223839572 heartbeat IPC: 2.767 cumulative IPC: 2.177 (Simulation time: 00 hr 54 min 15 sec)
Heartbeat CPU 0 instructions: 520000001 cycles: 227221575 heartbeat IPC: 2.957 cumulative IPC: 2.189 (Simulation time: 00 hr 55 min 13 sec)
Heartbeat CPU 0 instructions: 530000002 cycles: 230853103 heartbeat IPC: 2.754 cumulative IPC: 2.199 (Simulation time: 00 hr 56 min 12 sec)
Heartbeat CPU 0 instructions: 540000000 cycles: 234359467 heartbeat IPC: 2.852 cumulative IPC: 2.209 (Simulation time: 00 hr 57 min 11 sec)
Heartbeat CPU 0 instructions: 550000001 cycles: 238034927 heartbeat IPC: 2.721 cumulative IPC: 2.217 (Simulation time: 00 hr 58 min 12 sec)
Heartbeat CPU 0 instructions: 560000000 cycles: 241954628 heartbeat IPC: 2.551 cumulative IPC: 2.223 (Simulation time: 00 hr 59 min 11 sec)
Heartbeat CPU 0 instructions: 570000004 cycles: 247631410 heartbeat IPC: 1.762 cumulative IPC: 2.212 (Simulation time: 01 hr 00 min 23 sec)
Heartbeat CPU 0 instructions: 580000003 cycles: 257167121 heartbeat IPC: 1.049 cumulative IPC: 2.167 (Simulation time: 01 hr 02 min 02 sec)
Heartbeat CPU 0 instructions: 590000002 cycles: 268441405 heartbeat IPC: 0.887 cumulative IPC: 2.11 (Simulation time: 01 hr 03 min 54 sec)
Heartbeat CPU 0 instructions: 600000000 cycles: 272126846 heartbeat IPC: 2.713 cumulative IPC: 2.119 (Simulation time: 01 hr 04 min 52 sec)
Heartbeat CPU 0 instructions: 610000000 cycles: 275967903 heartbeat IPC: 2.603 cumulative IPC: 2.126 (Simulation time: 01 hr 05 min 52 sec)
Heartbeat CPU 0 instructions: 620000001 cycles: 279388882 heartbeat IPC: 2.923 cumulative IPC: 2.136 (Simulation time: 01 hr 06 min 55 sec)
Heartbeat CPU 0 instructions: 630000002 cycles: 283645610 heartbeat IPC: 2.349 cumulative IPC: 2.139 (Simulation time: 01 hr 08 min 03 sec)
Heartbeat CPU 0 instructions: 640000001 cycles: 287536775 heartbeat IPC: 2.57 cumulative IPC: 2.145 (Simulation time: 01 hr 09 min 05 sec)
Heartbeat CPU 0 instructions: 650000000 cycles: 291284474 heartbeat IPC: 2.668 cumulative IPC: 2.152 (Simulation time: 01 hr 10 min 09 sec)
Simulation finished CPU 0 instructions: 600000001 cycles: 278747339 cumulative IPC: 2.152 (Simulation time: 01 hr 10 min 09 sec)
Simulation complete CPU 0 instructions: 600000001 cycles: 278747339 cumulative IPC: 2.152 (Simulation time: 01 hr 10 min 09 sec)

ChampSim completed all CPUs

=== Simulation ===
CPU 0 runs traces/400.perlbench-41B.champsimtrace.xz
Region of Interest Statistics

CPU 0 cumulative IPC: 2.152 instructions: 600000001 cycles: 278747339
CPU 0 Branch Prediction Accuracy: 96.56% MPKI: 7.112 Average ROB Occupancy at Mispredict: 47.17
Branch type MPKI
BRANCH_DIRECT_JUMP: 0.0123
BRANCH_INDIRECT: 0.323
BRANCH_CONDITIONAL: 6.56
BRANCH_DIRECT_CALL: 0.0043
BRANCH_INDIRECT_CALL: 0.2
BRANCH_RETURN: 0.00828

LLC TOTAL        ACCESS:     540315 HIT:     343568 MISS:     196747
LLC LOAD         ACCESS:     403100 HIT:     220444 MISS:     182656
LLC RFO          ACCESS:      32529 HIT:      26950 MISS:       5579
LLC PREFETCH     ACCESS:          0 HIT:          0 MISS:          0
LLC WRITE        ACCESS:      85611 HIT:      85600 MISS:         11
LLC TRANSLATION  ACCESS:      19075 HIT:      10574 MISS:       8501
LLC PREFETCH REQUESTED:          0 ISSUED:          0 USEFUL:          0 USELESS:          0
LLC AVERAGE MISS LATENCY: 502.4 cycles
cpu0_DTLB TOTAL        ACCESS:  141924722 HIT:  141237715 MISS:     687007
cpu0_DTLB LOAD         ACCESS:  141924722 HIT:  141237715 MISS:     687007
cpu0_DTLB RFO          ACCESS:          0 HIT:          0 MISS:          0
cpu0_DTLB PREFETCH     ACCESS:          0 HIT:          0 MISS:          0
cpu0_DTLB WRITE        ACCESS:          0 HIT:          0 MISS:          0
cpu0_DTLB TRANSLATION  ACCESS:          0 HIT:          0 MISS:          0
cpu0_DTLB PREFETCH REQUESTED:          0 ISSUED:          0 USEFUL:          0 USELESS:          0
cpu0_DTLB AVERAGE MISS LATENCY: 12.54 cycles
cpu0_ITLB TOTAL        ACCESS:    4859927 HIT:    4806812 MISS:      53115
cpu0_ITLB LOAD         ACCESS:    4859927 HIT:    4806812 MISS:      53115
cpu0_ITLB RFO          ACCESS:          0 HIT:          0 MISS:          0
cpu0_ITLB PREFETCH     ACCESS:          0 HIT:          0 MISS:          0
cpu0_ITLB WRITE        ACCESS:          0 HIT:          0 MISS:          0
cpu0_ITLB TRANSLATION  ACCESS:          0 HIT:          0 MISS:          0
cpu0_ITLB PREFETCH REQUESTED:          0 ISSUED:          0 USEFUL:          0 USELESS:          0
cpu0_ITLB AVERAGE MISS LATENCY: 7.051 cycles
cpu0_L1D TOTAL        ACCESS:  188579185 HIT:  186860596 MISS:    1718589
cpu0_L1D LOAD         ACCESS:  105211057 HIT:  103858752 MISS:    1352305
cpu0_L1D RFO          ACCESS:          0 HIT:          0 MISS:          0
cpu0_L1D PREFETCH     ACCESS:          0 HIT:          0 MISS:          0
cpu0_L1D WRITE        ACCESS:   83343666 HIT:   83000783 MISS:     342883
cpu0_L1D TRANSLATION  ACCESS:      24462 HIT:       1061 MISS:      23401
cpu0_L1D PREFETCH REQUESTED:          0 ISSUED:          0 USEFUL:          0 USELESS:          0
cpu0_L1D AVERAGE MISS LATENCY: 64.24 cycles
cpu0_L1I TOTAL        ACCESS:    5597936 HIT:    4854286 MISS:     743650
cpu0_L1I LOAD         ACCESS:    5597936 HIT:    4854286 MISS:     743650
cpu0_L1I RFO          ACCESS:          0 HIT:          0 MISS:          0
cpu0_L1I PREFETCH     ACCESS:          0 HIT:          0 MISS:          0
cpu0_L1I WRITE        ACCESS:          0 HIT:          0 MISS:          0
cpu0_L1I TRANSLATION  ACCESS:          0 HIT:          0 MISS:          0
cpu0_L1I PREFETCH REQUESTED:          0 ISSUED:          0 USEFUL:          0 USELESS:          0
cpu0_L1I AVERAGE MISS LATENCY: 10.04 cycles
cpu0_L2C TOTAL        ACCESS:    1666063 HIT:    1209526 MISS:     456537
cpu0_L2C LOAD         ACCESS:    1315949 HIT:     912849 MISS:     403100
cpu0_L2C RFO          ACCESS:      88339 HIT:      55810 MISS:      32529
cpu0_L2C PREFETCH     ACCESS:          0 HIT:          0 MISS:          0
cpu0_L2C WRITE        ACCESS:     238444 HIT:     236611 MISS:       1833
cpu0_L2C TRANSLATION  ACCESS:      23331 HIT:       4256 MISS:      19075
cpu0_L2C PREFETCH REQUESTED:          0 ISSUED:          0 USEFUL:          0 USELESS:          0
cpu0_L2C AVERAGE MISS LATENCY: 236.9 cycles
cpu0_STLB TOTAL        ACCESS:     507471 HIT:     484677 MISS:      22794
cpu0_STLB LOAD         ACCESS:     507471 HIT:     484677 MISS:      22794
cpu0_STLB RFO          ACCESS:          0 HIT:          0 MISS:          0
cpu0_STLB PREFETCH     ACCESS:          0 HIT:          0 MISS:          0
cpu0_STLB WRITE        ACCESS:          0 HIT:          0 MISS:          0
cpu0_STLB TRANSLATION  ACCESS:          0 HIT:          0 MISS:          0
cpu0_STLB PREFETCH REQUESTED:          0 ISSUED:          0 USEFUL:          0 USELESS:          0
cpu0_STLB AVERAGE MISS LATENCY: 253.3 cycles

DRAM Statistics

Channel 0 RQ ROW_BUFFER_HIT:      50828
  ROW_BUFFER_MISS:     145898
 AVG DBUS CONGESTED CYCLE: 3.695
WQ ROW_BUFFER_HIT: Channel 0 
  ROW_BUFFER_MISS:       2400
  FULL:       2417
