WARNING: physical memory size is smaller than virtual memory size.

*** ChampSim Multicore Out-of-Order Simulator ***
Warmup Instructions: 50000000
Simulation Instructions: 600000000
Number of CPUs: 1
Page size: 4096

Off-chip DRAM Size: 4 GiB Channels: 1 Width: 64-bit Data Race: 3200 MT/s
Heartbeat CPU 0 instructions: 10000001 cycles: 2500318 heartbeat IPC: 3.999 cumulative IPC: 3.999 (Simulation time: 00 hr 01 min 01 sec)
Heartbeat CPU 0 instructions: 20000002 cycles: 5037110 heartbeat IPC: 3.942 cumulative IPC: 3.971 (Simulation time: 00 hr 02 min 26 sec)
Heartbeat CPU 0 instructions: 30000002 cycles: 7537110 heartbeat IPC: 4 cumulative IPC: 3.98 (Simulation time: 00 hr 04 min 22 sec)
Heartbeat CPU 0 instructions: 40000002 cycles: 10037110 heartbeat IPC: 4 cumulative IPC: 3.985 (Simulation time: 00 hr 06 min 42 sec)
Heartbeat CPU 0 instructions: 50000002 cycles: 12537110 heartbeat IPC: 4 cumulative IPC: 3.988 (Simulation time: 00 hr 09 min 47 sec)
Warmup finished CPU 0 instructions: 50000002 cycles: 12537111 cumulative IPC: 3.988 (Simulation time: 00 hr 09 min 47 sec)
Warmup complete CPU 0 instructions: 50000002 cycles: 12537111 cumulative IPC: 3.988 (Simulation time: 00 hr 09 min 47 sec)
Heartbeat CPU 0 instructions: 60000000 cycles: 17690169 heartbeat IPC: 1.941 cumulative IPC: 1.941 (Simulation time: 00 hr 15 min 18 sec)
Heartbeat CPU 0 instructions: 70000002 cycles: 22577275 heartbeat IPC: 2.046 cumulative IPC: 1.992 (Simulation time: 00 hr 20 min 36 sec)
Heartbeat CPU 0 instructions: 80000001 cycles: 27934139 heartbeat IPC: 1.867 cumulative IPC: 1.948 (Simulation time: 00 hr 26 min 06 sec)
Heartbeat CPU 0 instructions: 90000001 cycles: 32804415 heartbeat IPC: 2.053 cumulative IPC: 1.974 (Simulation time: 00 hr 31 min 21 sec)
Heartbeat CPU 0 instructions: 100000000 cycles: 37910266 heartbeat IPC: 1.959 cumulative IPC: 1.971 (Simulation time: 00 hr 36 min 45 sec)
Heartbeat CPU 0 instructions: 110000000 cycles: 42794037 heartbeat IPC: 2.048 cumulative IPC: 1.983 (Simulation time: 00 hr 41 min 58 sec)
Heartbeat CPU 0 instructions: 120000001 cycles: 47981670 heartbeat IPC: 1.928 cumulative IPC: 1.975 (Simulation time: 00 hr 47 min 20 sec)
Heartbeat CPU 0 instructions: 130000001 cycles: 53130516 heartbeat IPC: 1.942 cumulative IPC: 1.971 (Simulation time: 00 hr 52 min 44 sec)
Heartbeat CPU 0 instructions: 140000001 cycles: 58427697 heartbeat IPC: 1.888 cumulative IPC: 1.961 (Simulation time: 00 hr 58 min 09 sec)
Heartbeat CPU 0 instructions: 150000001 cycles: 63741656 heartbeat IPC: 1.882 cumulative IPC: 1.953 (Simulation time: 01 hr 03 min 39 sec)
Heartbeat CPU 0 instructions: 160000004 cycles: 68937243 heartbeat IPC: 1.925 cumulative IPC: 1.95 (Simulation time: 01 hr 09 min 03 sec)
Heartbeat CPU 0 instructions: 170000000 cycles: 76952413 heartbeat IPC: 1.248 cumulative IPC: 1.863 (Simulation time: 01 hr 16 min 19 sec)
Heartbeat CPU 0 instructions: 180000004 cycles: 84766005 heartbeat IPC: 1.28 cumulative IPC: 1.8 (Simulation time: 01 hr 23 min 45 sec)
Heartbeat CPU 0 instructions: 190000001 cycles: 94022077 heartbeat IPC: 1.08 cumulative IPC: 1.718 (Simulation time: 01 hr 31 min 53 sec)
Heartbeat CPU 0 instructions: 200000003 cycles: 98715398 heartbeat IPC: 2.131 cumulative IPC: 1.741 (Simulation time: 01 hr 37 min 01 sec)
Heartbeat CPU 0 instructions: 210000001 cycles: 103580075 heartbeat IPC: 2.056 cumulative IPC: 1.757 (Simulation time: 01 hr 42 min 21 sec)
Heartbeat CPU 0 instructions: 220000000 cycles: 108372465 heartbeat IPC: 2.087 cumulative IPC: 1.774 (Simulation time: 01 hr 47 min 32 sec)
Heartbeat CPU 0 instructions: 230000002 cycles: 113578701 heartbeat IPC: 1.921 cumulative IPC: 1.781 (Simulation time: 01 hr 52 min 57 sec)
Heartbeat CPU 0 instructions: 240000000 cycles: 118359053 heartbeat IPC: 2.092 cumulative IPC: 1.795 (Simulation time: 01 hr 58 min 10 sec)
Heartbeat CPU 0 instructions: 250000000 cycles: 123426751 heartbeat IPC: 1.973 cumulative IPC: 1.804 (Simulation time: 02 hr 03 min 26 sec)
Heartbeat CPU 0 instructions: 260000000 cycles: 128363967 heartbeat IPC: 2.025 cumulative IPC: 1.813 (Simulation time: 02 hr 08 min 42 sec)
Heartbeat CPU 0 instructions: 270000002 cycles: 133180152 heartbeat IPC: 2.076 cumulative IPC: 1.824 (Simulation time: 02 hr 13 min 54 sec)
Heartbeat CPU 0 instructions: 280000002 cycles: 138012748 heartbeat IPC: 2.069 cumulative IPC: 1.833 (Simulation time: 02 hr 19 min 07 sec)
Heartbeat CPU 0 instructions: 290000001 cycles: 143316502 heartbeat IPC: 1.885 cumulative IPC: 1.835 (Simulation time: 02 hr 24 min 38 sec)
Heartbeat CPU 0 instructions: 300000003 cycles: 148270162 heartbeat IPC: 2.019 cumulative IPC: 1.842 (Simulation time: 02 hr 30 min 12 sec)
Heartbeat CPU 0 instructions: 310000001 cycles: 153436690 heartbeat IPC: 1.936 cumulative IPC: 1.845 (Simulation time: 02 hr 35 min 34 sec)
Heartbeat CPU 0 instructions: 320000003 cycles: 158552183 heartbeat IPC: 1.955 cumulative IPC: 1.849 (Simulation time: 02 hr 40 min 56 sec)
Heartbeat CPU 0 instructions: 330000003 cycles: 163736613 heartbeat IPC: 1.929 cumulative IPC: 1.852 (Simulation time: 02 hr 46 min 17 sec)
Heartbeat CPU 0 instructions: 340000000 cycles: 172150974 heartbeat IPC: 1.188 cumulative IPC: 1.817 (Simulation time: 02 hr 53 min 59 sec)
Heartbeat CPU 0 instructions: 350000000 cycles: 181121024 heartbeat IPC: 1.115 cumulative IPC: 1.78 (Simulation time: 03 hr 02 min 10 sec)
Heartbeat CPU 0 instructions: 360000004 cycles: 189899133 heartbeat IPC: 1.139 cumulative IPC: 1.748 (Simulation time: 03 hr 10 min 03 sec)
Heartbeat CPU 0 instructions: 370000000 cycles: 194228387 heartbeat IPC: 2.31 cumulative IPC: 1.761 (Simulation time: 03 hr 14 min 59 sec)
Heartbeat CPU 0 instructions: 380000001 cycles: 199066679 heartbeat IPC: 2.067 cumulative IPC: 1.769 (Simulation time: 03 hr 20 min 12 sec)
Heartbeat CPU 0 instructions: 390000002 cycles: 203838273 heartbeat IPC: 2.096 cumulative IPC: 1.777 (Simulation time: 03 hr 25 min 26 sec)
Heartbeat CPU 0 instructions: 400000004 cycles: 208741850 heartbeat IPC: 2.039 cumulative IPC: 1.784 (Simulation time: 03 hr 30 min 42 sec)
Heartbeat CPU 0 instructions: 410000000 cycles: 213372626 heartbeat IPC: 2.159 cumulative IPC: 1.793 (Simulation time: 03 hr 35 min 45 sec)
Heartbeat CPU 0 instructions: 420000000 cycles: 218365961 heartbeat IPC: 2.003 cumulative IPC: 1.798 (Simulation time: 03 hr 40 min 59 sec)
Heartbeat CPU 0 instructions: 430000001 cycles: 222770150 heartbeat IPC: 2.271 cumulative IPC: 1.808 (Simulation time: 03 hr 45 min 59 sec)
Heartbeat CPU 0 instructions: 440000000 cycles: 228033755 heartbeat IPC: 1.9 cumulative IPC: 1.81 (Simulation time: 03 hr 51 min 28 sec)
Heartbeat CPU 0 instructions: 450000002 cycles: 232622402 heartbeat IPC: 2.179 cumulative IPC: 1.817 (Simulation time: 03 hr 56 min 35 sec)
Heartbeat CPU 0 instructions: 460000000 cycles: 237336208 heartbeat IPC: 2.121 cumulative IPC: 1.824 (Simulation time: 04 hr 01 min 39 sec)
Heartbeat CPU 0 instructions: 470000000 cycles: 242240459 heartbeat IPC: 2.039 cumulative IPC: 1.828 (Simulation time: 04 hr 06 min 54 sec)
Heartbeat CPU 0 instructions: 480000003 cycles: 246936856 heartbeat IPC: 2.129 cumulative IPC: 1.834 (Simulation time: 04 hr 11 min 55 sec)
Heartbeat CPU 0 instructions: 490000000 cycles: 251496623 heartbeat IPC: 2.193 cumulative IPC: 1.841 (Simulation time: 04 hr 16 min 54 sec)
Heartbeat CPU 0 instructions: 500000000 cycles: 256466501 heartbeat IPC: 2.012 cumulative IPC: 1.845 (Simulation time: 04 hr 22 min 11 sec)
Heartbeat CPU 0 instructions: 510000003 cycles: 262004335 heartbeat IPC: 1.806 cumulative IPC: 1.844 (Simulation time: 04 hr 27 min 49 sec)
Heartbeat CPU 0 instructions: 520000001 cycles: 266598144 heartbeat IPC: 2.177 cumulative IPC: 1.85 (Simulation time: 04 hr 32 min 56 sec)
Heartbeat CPU 0 instructions: 530000002 cycles: 271667770 heartbeat IPC: 1.973 cumulative IPC: 1.852 (Simulation time: 04 hr 38 min 20 sec)
Heartbeat CPU 0 instructions: 540000000 cycles: 276705067 heartbeat IPC: 1.985 cumulative IPC: 1.855 (Simulation time: 04 hr 43 min 39 sec)
Heartbeat CPU 0 instructions: 550000001 cycles: 281449331 heartbeat IPC: 2.108 cumulative IPC: 1.859 (Simulation time: 04 hr 48 min 48 sec)
Heartbeat CPU 0 instructions: 560000000 cycles: 286559073 heartbeat IPC: 1.957 cumulative IPC: 1.861 (Simulation time: 04 hr 54 min 11 sec)
Heartbeat CPU 0 instructions: 570000004 cycles: 292931161 heartbeat IPC: 1.569 cumulative IPC: 1.855 (Simulation time: 05 hr 00 min 25 sec)
Heartbeat CPU 0 instructions: 580000003 cycles: 302340232 heartbeat IPC: 1.063 cumulative IPC: 1.829 (Simulation time: 05 hr 08 min 50 sec)
Heartbeat CPU 0 instructions: 590000002 cycles: 312891189 heartbeat IPC: 0.9478 cumulative IPC: 1.798 (Simulation time: 05 hr 18 min 03 sec)
Heartbeat CPU 0 instructions: 600000000 cycles: 317373159 heartbeat IPC: 2.231 cumulative IPC: 1.804 (Simulation time: 05 hr 23 min 17 sec)
Heartbeat CPU 0 instructions: 610000002 cycles: 321794463 heartbeat IPC: 2.262 cumulative IPC: 1.811 (Simulation time: 05 hr 28 min 14 sec)
Heartbeat CPU 0 instructions: 620000000 cycles: 326559747 heartbeat IPC: 2.099 cumulative IPC: 1.815 (Simulation time: 05 hr 33 min 39 sec)
Heartbeat CPU 0 instructions: 630000002 cycles: 331584407 heartbeat IPC: 1.99 cumulative IPC: 1.818 (Simulation time: 05 hr 39 min 13 sec)
Heartbeat CPU 0 instructions: 640000001 cycles: 336411386 heartbeat IPC: 2.072 cumulative IPC: 1.822 (Simulation time: 05 hr 44 min 37 sec)
Heartbeat CPU 0 instructions: 650000000 cycles: 340936946 heartbeat IPC: 2.21 cumulative IPC: 1.827 (Simulation time: 05 hr 49 min 53 sec)
Simulation finished CPU 0 instructions: 600000001 cycles: 328399837 cumulative IPC: 1.827 (Simulation time: 05 hr 49 min 53 sec)
Simulation complete CPU 0 instructions: 600000001 cycles: 328399837 cumulative IPC: 1.827 (Simulation time: 05 hr 49 min 53 sec)

ChampSim completed all CPUs

=== Simulation ===
CPU 0 runs traces/400.perlbench-41B.champsimtrace.xz
Region of Interest Statistics

CPU 0 cumulative IPC: 1.827 instructions: 600000001 cycles: 328399837
CPU 0 Branch Prediction Accuracy: 93.95% MPKI: 12.5 Average ROB Occupancy at Mispredict: 29.51
Branch type MPKI
BRANCH_DIRECT_JUMP: 0.0123
BRANCH_INDIRECT: 0.323
BRANCH_CONDITIONAL: 12
BRANCH_DIRECT_CALL: 0.0043
BRANCH_INDIRECT_CALL: 0.2
BRANCH_RETURN: 0.00828

LLC TOTAL        ACCESS:     595410 HIT:     434552 MISS:     160858
LLC LOAD         ACCESS:     403525 HIT:     279351 MISS:     124174
LLC RFO          ACCESS:      32572 HIT:      22710 MISS:       9862
LLC PREFETCH     ACCESS:      54540 HIT:      39238 MISS:      15302
LLC WRITE        ACCESS:      85735 HIT:      83223 MISS:       2512
LLC TRANSLATION  ACCESS:      19038 HIT:      10030 MISS:       9008
LLC PREFETCH REQUESTED:      54540 ISSUED:      54540 USEFUL:       6686 USELESS:       6880
LLC AVERAGE MISS LATENCY: 507.7 cycles
cpu0_DTLB TOTAL        ACCESS:  153684905 HIT:  153007654 MISS:     677251
cpu0_DTLB LOAD         ACCESS:  153684905 HIT:  153007654 MISS:     677251
cpu0_DTLB RFO          ACCESS:          0 HIT:          0 MISS:          0
cpu0_DTLB PREFETCH     ACCESS:          0 HIT:          0 MISS:          0
cpu0_DTLB WRITE        ACCESS:          0 HIT:          0 MISS:          0
cpu0_DTLB TRANSLATION  ACCESS:          0 HIT:          0 MISS:          0
cpu0_DTLB PREFETCH REQUESTED:          0 ISSUED:          0 USEFUL:          0 USELESS:          0
cpu0_DTLB AVERAGE MISS LATENCY: 13.47 cycles
cpu0_ITLB TOTAL        ACCESS:    4839071 HIT:    4781234 MISS:      57837
cpu0_ITLB LOAD         ACCESS:    4839071 HIT:    4781234 MISS:      57837
cpu0_ITLB RFO          ACCESS:          0 HIT:          0 MISS:          0
cpu0_ITLB PREFETCH     ACCESS:          0 HIT:          0 MISS:          0
cpu0_ITLB WRITE        ACCESS:          0 HIT:          0 MISS:          0
cpu0_ITLB TRANSLATION  ACCESS:          0 HIT:          0 MISS:          0
cpu0_ITLB PREFETCH REQUESTED:          0 ISSUED:          0 USEFUL:          0 USELESS:          0
cpu0_ITLB AVERAGE MISS LATENCY: 5.941 cycles
cpu0_L1D TOTAL        ACCESS:  200301824 HIT:  198595769 MISS:    1706055
cpu0_L1D LOAD         ACCESS:  117059057 HIT:  115728876 MISS:    1330181
cpu0_L1D RFO          ACCESS:          0 HIT:          0 MISS:          0
cpu0_L1D PREFETCH     ACCESS:          0 HIT:          0 MISS:          0
cpu0_L1D WRITE        ACCESS:   83218308 HIT:   82865849 MISS:     352459
cpu0_L1D TRANSLATION  ACCESS:      24459 HIT:       1044 MISS:      23415
cpu0_L1D PREFETCH REQUESTED:          0 ISSUED:          0 USEFUL:          0 USELESS:          0
cpu0_L1D AVERAGE MISS LATENCY: 50.69 cycles
cpu0_L1I TOTAL        ACCESS:    5581320 HIT:    4819875 MISS:     761445
cpu0_L1I LOAD         ACCESS:    5581320 HIT:    4819875 MISS:     761445
cpu0_L1I RFO          ACCESS:          0 HIT:          0 MISS:          0
cpu0_L1I PREFETCH     ACCESS:          0 HIT:          0 MISS:          0
cpu0_L1I WRITE        ACCESS:          0 HIT:          0 MISS:          0
cpu0_L1I TRANSLATION  ACCESS:          0 HIT:          0 MISS:          0
cpu0_L1I PREFETCH REQUESTED:          0 ISSUED:          0 USEFUL:          0 USELESS:          0
cpu0_L1I AVERAGE MISS LATENCY: 9.613 cycles
cpu0_L2C TOTAL        ACCESS:    1668038 HIT:    1211092 MISS:     456946
cpu0_L2C LOAD         ACCESS:    1317147 HIT:     913622 MISS:     403525
cpu0_L2C RFO          ACCESS:      88611 HIT:      56039 MISS:      32572
cpu0_L2C PREFETCH     ACCESS:          0 HIT:          0 MISS:          0
cpu0_L2C WRITE        ACCESS:     238941 HIT:     237130 MISS:       1811
cpu0_L2C TRANSLATION  ACCESS:      23339 HIT:       4301 MISS:      19038
cpu0_L2C PREFETCH REQUESTED:          0 ISSUED:          0 USEFUL:          0 USELESS:          0
cpu0_L2C AVERAGE MISS LATENCY: 181.1 cycles
cpu0_STLB TOTAL        ACCESS:     505214 HIT:     482426 MISS:      22788
cpu0_STLB LOAD         ACCESS:     505214 HIT:     482426 MISS:      22788
cpu0_STLB RFO          ACCESS:          0 HIT:          0 MISS:          0
cpu0_STLB PREFETCH     ACCESS:          0 HIT:          0 MISS:          0
cpu0_STLB WRITE        ACCESS:          0 HIT:          0 MISS:          0
cpu0_STLB TRANSLATION  ACCESS:          0 HIT:          0 MISS:          0
cpu0_STLB PREFETCH REQUESTED:          0 ISSUED:          0 USEFUL:          0 USELESS:          0
cpu0_STLB AVERAGE MISS LATENCY: 271.7 cycles

DRAM Statistics

Channel 0 RQ ROW_BUFFER_HIT:      29436
  ROW_BUFFER_MISS:     125997
 AVG DBUS CONGESTED CYCLE: 3.765
WQ ROW_BUFFER_HIT: Channel 0 
  ROW_BUFFER_MISS:       7216
  FULL:      13098
