WARNING: physical memory size is smaller than virtual memory size.

*** ChampSim Multicore Out-of-Order Simulator ***
Warmup Instructions: 50000000
Simulation Instructions: 600000000
Number of CPUs: 1
Page size: 4096

Off-chip DRAM Size: 4 GiB Channels: 1 Width: 64-bit Data Race: 3200 MT/s
Heartbeat CPU 0 instructions: 10000000 cycles: 2500061 heartbeat IPC: 4 cumulative IPC: 4 (Simulation time: 00 hr 03 min 22 sec)
Heartbeat CPU 0 instructions: 20000000 cycles: 5000061 heartbeat IPC: 4 cumulative IPC: 4 (Simulation time: 00 hr 06 min 40 sec)
Heartbeat CPU 0 instructions: 30000000 cycles: 7500061 heartbeat IPC: 4 cumulative IPC: 4 (Simulation time: 00 hr 10 min 02 sec)
Heartbeat CPU 0 instructions: 40000000 cycles: 10000061 heartbeat IPC: 4 cumulative IPC: 4 (Simulation time: 00 hr 13 min 10 sec)
Heartbeat CPU 0 instructions: 50000000 cycles: 12500061 heartbeat IPC: 4 cumulative IPC: 4 (Simulation time: 00 hr 16 min 30 sec)
Warmup finished CPU 0 instructions: 50000000 cycles: 12500062 cumulative IPC: 4 (Simulation time: 00 hr 16 min 30 sec)
Warmup complete CPU 0 instructions: 50000000 cycles: 12500062 cumulative IPC: 4 (Simulation time: 00 hr 16 min 30 sec)
Heartbeat CPU 0 instructions: 60000002 cycles: 16911341 heartbeat IPC: 2.267 cumulative IPC: 2.267 (Simulation time: 00 hr 21 min 18 sec)
Heartbeat CPU 0 instructions: 70000003 cycles: 21897820 heartbeat IPC: 2.005 cumulative IPC: 2.128 (Simulation time: 00 hr 26 min 24 sec)
Heartbeat CPU 0 instructions: 80000001 cycles: 27247190 heartbeat IPC: 1.869 cumulative IPC: 2.034 (Simulation time: 00 hr 31 min 37 sec)
Heartbeat CPU 0 instructions: 90000000 cycles: 31546012 heartbeat IPC: 2.326 cumulative IPC: 2.1 (Simulation time: 00 hr 36 min 27 sec)
Heartbeat CPU 0 instructions: 100000003 cycles: 36406147 heartbeat IPC: 2.058 cumulative IPC: 2.092 (Simulation time: 00 hr 41 min 28 sec)
Heartbeat CPU 0 instructions: 110000002 cycles: 41284204 heartbeat IPC: 2.05 cumulative IPC: 2.084 (Simulation time: 00 hr 46 min 26 sec)
Heartbeat CPU 0 instructions: 120000001 cycles: 46280693 heartbeat IPC: 2.001 cumulative IPC: 2.072 (Simulation time: 00 hr 51 min 18 sec)
Heartbeat CPU 0 instructions: 130000003 cycles: 50851474 heartbeat IPC: 2.188 cumulative IPC: 2.086 (Simulation time: 00 hr 55 min 51 sec)
Heartbeat CPU 0 instructions: 140000002 cycles: 55744742 heartbeat IPC: 2.044 cumulative IPC: 2.081 (Simulation time: 01 hr 00 min 20 sec)
Heartbeat CPU 0 instructions: 150000001 cycles: 60416524 heartbeat IPC: 2.141 cumulative IPC: 2.087 (Simulation time: 01 hr 04 min 36 sec)
Heartbeat CPU 0 instructions: 160000000 cycles: 65057180 heartbeat IPC: 2.155 cumulative IPC: 2.093 (Simulation time: 01 hr 08 min 42 sec)
Heartbeat CPU 0 instructions: 170000000 cycles: 70394497 heartbeat IPC: 1.874 cumulative IPC: 2.073 (Simulation time: 01 hr 12 min 58 sec)
Heartbeat CPU 0 instructions: 180000001 cycles: 76116472 heartbeat IPC: 1.748 cumulative IPC: 2.043 (Simulation time: 01 hr 17 min 18 sec)
Heartbeat CPU 0 instructions: 190000002 cycles: 80593267 heartbeat IPC: 2.234 cumulative IPC: 2.056 (Simulation time: 01 hr 21 min 03 sec)
Heartbeat CPU 0 instructions: 200000002 cycles: 85503685 heartbeat IPC: 2.036 cumulative IPC: 2.055 (Simulation time: 01 hr 24 min 57 sec)
Heartbeat CPU 0 instructions: 210000000 cycles: 90509961 heartbeat IPC: 1.997 cumulative IPC: 2.051 (Simulation time: 01 hr 28 min 53 sec)
Heartbeat CPU 0 instructions: 220000001 cycles: 95435925 heartbeat IPC: 2.03 cumulative IPC: 2.05 (Simulation time: 01 hr 32 min 48 sec)
Heartbeat CPU 0 instructions: 230000002 cycles: 100684992 heartbeat IPC: 1.905 cumulative IPC: 2.041 (Simulation time: 01 hr 36 min 51 sec)
Heartbeat CPU 0 instructions: 240000001 cycles: 105652106 heartbeat IPC: 2.013 cumulative IPC: 2.04 (Simulation time: 01 hr 40 min 44 sec)
Heartbeat CPU 0 instructions: 250000003 cycles: 110840378 heartbeat IPC: 1.927 cumulative IPC: 2.034 (Simulation time: 01 hr 44 min 41 sec)
Heartbeat CPU 0 instructions: 260000001 cycles: 115702940 heartbeat IPC: 2.057 cumulative IPC: 2.035 (Simulation time: 01 hr 48 min 34 sec)
Heartbeat CPU 0 instructions: 270000000 cycles: 123412770 heartbeat IPC: 1.297 cumulative IPC: 1.984 (Simulation time: 01 hr 53 min 51 sec)
Heartbeat CPU 0 instructions: 280000000 cycles: 134605461 heartbeat IPC: 0.8934 cumulative IPC: 1.884 (Simulation time: 02 hr 01 min 30 sec)
Heartbeat CPU 0 instructions: 290000001 cycles: 145863696 heartbeat IPC: 0.8882 cumulative IPC: 1.8 (Simulation time: 02 hr 09 min 24 sec)
Heartbeat CPU 0 instructions: 300000003 cycles: 154293895 heartbeat IPC: 1.186 cumulative IPC: 1.763 (Simulation time: 02 hr 15 min 55 sec)
Heartbeat CPU 0 instructions: 310000004 cycles: 166610774 heartbeat IPC: 0.8119 cumulative IPC: 1.687 (Simulation time: 02 hr 24 min 26 sec)
Heartbeat CPU 0 instructions: 320000004 cycles: 172721403 heartbeat IPC: 1.636 cumulative IPC: 1.685 (Simulation time: 02 hr 29 min 35 sec)
Heartbeat CPU 0 instructions: 330000000 cycles: 178026953 heartbeat IPC: 1.885 cumulative IPC: 1.692 (Simulation time: 02 hr 34 min 08 sec)
Heartbeat CPU 0 instructions: 340000001 cycles: 183103195 heartbeat IPC: 1.97 cumulative IPC: 1.7 (Simulation time: 02 hr 38 min 32 sec)
Heartbeat CPU 0 instructions: 350000000 cycles: 188210929 heartbeat IPC: 1.958 cumulative IPC: 1.707 (Simulation time: 02 hr 43 min 00 sec)
Heartbeat CPU 0 instructions: 360000003 cycles: 192996826 heartbeat IPC: 2.089 cumulative IPC: 1.717 (Simulation time: 02 hr 47 min 14 sec)
Heartbeat CPU 0 instructions: 370000001 cycles: 197706799 heartbeat IPC: 2.123 cumulative IPC: 1.728 (Simulation time: 02 hr 51 min 28 sec)
Heartbeat CPU 0 instructions: 380000004 cycles: 202692753 heartbeat IPC: 2.006 cumulative IPC: 1.735 (Simulation time: 02 hr 55 min 53 sec)
Heartbeat CPU 0 instructions: 390000002 cycles: 207593751 heartbeat IPC: 2.04 cumulative IPC: 1.743 (Simulation time: 03 hr 00 min 14 sec)
Heartbeat CPU 0 instructions: 400000000 cycles: 212571102 heartbeat IPC: 2.009 cumulative IPC: 1.749 (Simulation time: 03 hr 04 min 37 sec)
Heartbeat CPU 0 instructions: 410000000 cycles: 219255683 heartbeat IPC: 1.496 cumulative IPC: 1.741 (Simulation time: 03 hr 10 min 02 sec)
Heartbeat CPU 0 instructions: 420000001 cycles: 227207062 heartbeat IPC: 1.258 cumulative IPC: 1.723 (Simulation time: 03 hr 15 min 58 sec)
Heartbeat CPU 0 instructions: 430000000 cycles: 235899810 heartbeat IPC: 1.15 cumulative IPC: 1.701 (Simulation time: 03 hr 22 min 27 sec)
Heartbeat CPU 0 instructions: 440000002 cycles: 244409714 heartbeat IPC: 1.175 cumulative IPC: 1.682 (Simulation time: 03 hr 28 min 33 sec)
Heartbeat CPU 0 instructions: 450000000 cycles: 252302354 heartbeat IPC: 1.267 cumulative IPC: 1.668 (Simulation time: 03 hr 33 min 54 sec)
Heartbeat CPU 0 instructions: 460000002 cycles: 264211617 heartbeat IPC: 0.8397 cumulative IPC: 1.629 (Simulation time: 03 hr 41 min 03 sec)
Heartbeat CPU 0 instructions: 470000000 cycles: 274937044 heartbeat IPC: 0.9324 cumulative IPC: 1.6 (Simulation time: 03 hr 47 min 39 sec)
Heartbeat CPU 0 instructions: 480000000 cycles: 280391726 heartbeat IPC: 1.833 cumulative IPC: 1.605 (Simulation time: 03 hr 51 min 40 sec)
Heartbeat CPU 0 instructions: 490000001 cycles: 285604643 heartbeat IPC: 1.918 cumulative IPC: 1.611 (Simulation time: 03 hr 55 min 33 sec)
Heartbeat CPU 0 instructions: 500000002 cycles: 290548307 heartbeat IPC: 2.023 cumulative IPC: 1.618 (Simulation time: 03 hr 59 min 19 sec)
Heartbeat CPU 0 instructions: 510000000 cycles: 295475102 heartbeat IPC: 2.03 cumulative IPC: 1.626 (Simulation time: 04 hr 03 min 08 sec)
Heartbeat CPU 0 instructions: 520000000 cycles: 300424449 heartbeat IPC: 2.02 cumulative IPC: 1.632 (Simulation time: 04 hr 06 min 58 sec)
Heartbeat CPU 0 instructions: 530000001 cycles: 308736296 heartbeat IPC: 1.203 cumulative IPC: 1.62 (Simulation time: 04 hr 12 min 30 sec)
Heartbeat CPU 0 instructions: 540000000 cycles: 318352467 heartbeat IPC: 1.04 cumulative IPC: 1.602 (Simulation time: 04 hr 18 min 45 sec)
Heartbeat CPU 0 instructions: 550000002 cycles: 331496205 heartbeat IPC: 0.7608 cumulative IPC: 1.567 (Simulation time: 04 hr 26 min 33 sec)
Heartbeat CPU 0 instructions: 560000004 cycles: 336522878 heartbeat IPC: 1.989 cumulative IPC: 1.574 (Simulation time: 04 hr 30 min 22 sec)
Heartbeat CPU 0 instructions: 570000001 cycles: 340944327 heartbeat IPC: 2.262 cumulative IPC: 1.583 (Simulation time: 04 hr 33 min 45 sec)
Heartbeat CPU 0 instructions: 580000003 cycles: 345194277 heartbeat IPC: 2.353 cumulative IPC: 1.593 (Simulation time: 04 hr 37 min 01 sec)
Heartbeat CPU 0 instructions: 590000001 cycles: 350102412 heartbeat IPC: 2.037 cumulative IPC: 1.6 (Simulation time: 04 hr 40 min 32 sec)
Heartbeat CPU 0 instructions: 600000003 cycles: 354743122 heartbeat IPC: 2.155 cumulative IPC: 1.607 (Simulation time: 04 hr 43 min 50 sec)
Heartbeat CPU 0 instructions: 610000001 cycles: 359610512 heartbeat IPC: 2.054 cumulative IPC: 1.613 (Simulation time: 04 hr 46 min 53 sec)
Heartbeat CPU 0 instructions: 620000000 cycles: 364677847 heartbeat IPC: 1.973 cumulative IPC: 1.619 (Simulation time: 04 hr 49 min 36 sec)
Heartbeat CPU 0 instructions: 630000002 cycles: 368926608 heartbeat IPC: 2.354 cumulative IPC: 1.627 (Simulation time: 04 hr 52 min 01 sec)
Heartbeat CPU 0 instructions: 640000004 cycles: 374247642 heartbeat IPC: 1.879 cumulative IPC: 1.631 (Simulation time: 04 hr 54 min 32 sec)
Heartbeat CPU 0 instructions: 650000001 cycles: 379009464 heartbeat IPC: 2.1 cumulative IPC: 1.637 (Simulation time: 04 hr 56 min 30 sec)
Simulation finished CPU 0 instructions: 600000001 cycles: 366509403 cumulative IPC: 1.637 (Simulation time: 04 hr 56 min 30 sec)
Simulation complete CPU 0 instructions: 600000001 cycles: 366509403 cumulative IPC: 1.637 (Simulation time: 04 hr 56 min 30 sec)

ChampSim completed all CPUs

=== Simulation ===
CPU 0 runs traces/400.perlbench-50B.champsimtrace.xz
Region of Interest Statistics

CPU 0 cumulative IPC: 1.637 instructions: 600000001 cycles: 366509403
CPU 0 Branch Prediction Accuracy: 93.83% MPKI: 12.71 Average ROB Occupancy at Mispredict: 29.57
Branch type MPKI
BRANCH_DIRECT_JUMP: 0.0176
BRANCH_INDIRECT: 0.38
BRANCH_CONDITIONAL: 11.9
BRANCH_DIRECT_CALL: 0.0067
BRANCH_INDIRECT_CALL: 0.431
BRANCH_RETURN: 0.0161

LLC TOTAL        ACCESS:     791604 HIT:     536851 MISS:     254753
LLC LOAD         ACCESS:     592560 HIT:     388258 MISS:     204302
LLC RFO          ACCESS:      47751 HIT:      30110 MISS:      17641
LLC PREFETCH     ACCESS:          0 HIT:          0 MISS:          0
LLC WRITE        ACCESS:     129246 HIT:     111393 MISS:      17853
LLC TRANSLATION  ACCESS:      22047 HIT:       7090 MISS:      14957
LLC PREFETCH REQUESTED:          0 ISSUED:          0 USEFUL:          0 USELESS:          0
LLC AVERAGE MISS LATENCY: 479.1 cycles
cpu0_DTLB TOTAL        ACCESS:  156755879 HIT:  155454279 MISS:    1301600
cpu0_DTLB LOAD         ACCESS:  156755879 HIT:  155454279 MISS:    1301600
cpu0_DTLB RFO          ACCESS:          0 HIT:          0 MISS:          0
cpu0_DTLB PREFETCH     ACCESS:          0 HIT:          0 MISS:          0
cpu0_DTLB WRITE        ACCESS:          0 HIT:          0 MISS:          0
cpu0_DTLB TRANSLATION  ACCESS:          0 HIT:          0 MISS:          0
cpu0_DTLB PREFETCH REQUESTED:          0 ISSUED:          0 USEFUL:          0 USELESS:          0
cpu0_DTLB AVERAGE MISS LATENCY: 12.8 cycles
cpu0_ITLB TOTAL        ACCESS:    8932864 HIT:    8734203 MISS:     198661
cpu0_ITLB LOAD         ACCESS:    8932864 HIT:    8734203 MISS:     198661
cpu0_ITLB RFO          ACCESS:          0 HIT:          0 MISS:          0
cpu0_ITLB PREFETCH     ACCESS:          0 HIT:          0 MISS:          0
cpu0_ITLB WRITE        ACCESS:          0 HIT:          0 MISS:          0
cpu0_ITLB TRANSLATION  ACCESS:          0 HIT:          0 MISS:          0
cpu0_ITLB PREFETCH REQUESTED:          0 ISSUED:          0 USEFUL:          0 USELESS:          0
cpu0_ITLB AVERAGE MISS LATENCY: 3.394 cycles
cpu0_L1D TOTAL        ACCESS:  203598887 HIT:  199933341 MISS:    3665546
cpu0_L1D LOAD         ACCESS:  117922036 HIT:  114906013 MISS:    3016023
cpu0_L1D RFO          ACCESS:          0 HIT:          0 MISS:          0
cpu0_L1D PREFETCH     ACCESS:          0 HIT:          0 MISS:          0
cpu0_L1D WRITE        ACCESS:   85648310 HIT:   85025930 MISS:     622380
cpu0_L1D TRANSLATION  ACCESS:      28541 HIT:       1398 MISS:      27143
cpu0_L1D PREFETCH REQUESTED:          0 ISSUED:          0 USEFUL:          0 USELESS:          0
cpu0_L1D AVERAGE MISS LATENCY: 37.52 cycles
cpu0_L1I TOTAL        ACCESS:   10371587 HIT:    8574515 MISS:    1797072
cpu0_L1I LOAD         ACCESS:   10371587 HIT:    8574515 MISS:    1797072
cpu0_L1I RFO          ACCESS:          0 HIT:          0 MISS:          0
cpu0_L1I PREFETCH     ACCESS:          0 HIT:          0 MISS:          0
cpu0_L1I WRITE        ACCESS:          0 HIT:          0 MISS:          0
cpu0_L1I TRANSLATION  ACCESS:          0 HIT:          0 MISS:          0
cpu0_L1I PREFETCH REQUESTED:          0 ISSUED:          0 USEFUL:          0 USELESS:          0
cpu0_L1I AVERAGE MISS LATENCY: 13.67 cycles
cpu0_L2C TOTAL        ACCESS:    3837173 HIT:    3171417 MISS:     665756
cpu0_L2C LOAD         ACCESS:    3106476 HIT:    2513916 MISS:     592560
cpu0_L2C RFO          ACCESS:     191762 HIT:     144011 MISS:      47751
cpu0_L2C PREFETCH     ACCESS:          0 HIT:          0 MISS:          0
cpu0_L2C WRITE        ACCESS:     511876 HIT:     508478 MISS:       3398
cpu0_L2C TRANSLATION  ACCESS:      27059 HIT:       5012 MISS:      22047
cpu0_L2C PREFETCH REQUESTED:          0 ISSUED:          0 USEFUL:          0 USELESS:          0
cpu0_L2C AVERAGE MISS LATENCY: 203.6 cycles
cpu0_STLB TOTAL        ACCESS:    1009331 HIT:     982641 MISS:      26690
cpu0_STLB LOAD         ACCESS:    1009331 HIT:     982641 MISS:      26690
cpu0_STLB RFO          ACCESS:          0 HIT:          0 MISS:          0
cpu0_STLB PREFETCH     ACCESS:          0 HIT:          0 MISS:          0
cpu0_STLB WRITE        ACCESS:          0 HIT:          0 MISS:          0
cpu0_STLB TRANSLATION  ACCESS:          0 HIT:          0 MISS:          0
cpu0_STLB PREFETCH REQUESTED:          0 ISSUED:          0 USEFUL:          0 USELESS:          0
cpu0_STLB AVERAGE MISS LATENCY: 405.5 cycles

DRAM Statistics

Channel 0 RQ ROW_BUFFER_HIT:      40253
  ROW_BUFFER_MISS:     196584
 AVG DBUS CONGESTED CYCLE: 3.779
WQ ROW_BUFFER_HIT: Channel 0 
  ROW_BUFFER_MISS:       9371
  FULL:      25470
