WARNING: physical memory size is smaller than virtual memory size.

*** ChampSim Multicore Out-of-Order Simulator ***
Warmup Instructions: 50000000
Simulation Instructions: 600000000
Number of CPUs: 1
Page size: 4096

CPU 0 Tage branch predictor
Off-chip DRAM Size: 4 GiB Channels: 1 Width: 64-bit Data Race: 3200 MT/s
Heartbeat CPU 0 instructions: 10000000 cycles: 2500061 heartbeat IPC: 4 cumulative IPC: 4 (Simulation time: 00 hr 00 min 25 sec)
Heartbeat CPU 0 instructions: 20000000 cycles: 5000061 heartbeat IPC: 4 cumulative IPC: 4 (Simulation time: 00 hr 00 min 55 sec)
Heartbeat CPU 0 instructions: 30000000 cycles: 7500061 heartbeat IPC: 4 cumulative IPC: 4 (Simulation time: 00 hr 01 min 30 sec)
Heartbeat CPU 0 instructions: 40000000 cycles: 10000061 heartbeat IPC: 4 cumulative IPC: 4 (Simulation time: 00 hr 02 min 11 sec)
Heartbeat CPU 0 instructions: 50000000 cycles: 12500061 heartbeat IPC: 4 cumulative IPC: 4 (Simulation time: 00 hr 02 min 57 sec)
Warmup finished CPU 0 instructions: 50000000 cycles: 12500062 cumulative IPC: 4 (Simulation time: 00 hr 02 min 57 sec)
Warmup complete CPU 0 instructions: 50000000 cycles: 12500062 cumulative IPC: 4 (Simulation time: 00 hr 02 min 57 sec)
Heartbeat CPU 0 instructions: 60000004 cycles: 15503677 heartbeat IPC: 3.329 cumulative IPC: 3.329 (Simulation time: 00 hr 04 min 01 sec)
Heartbeat CPU 0 instructions: 70000003 cycles: 18382317 heartbeat IPC: 3.474 cumulative IPC: 3.4 (Simulation time: 00 hr 05 min 10 sec)
Heartbeat CPU 0 instructions: 80000002 cycles: 21404747 heartbeat IPC: 3.309 cumulative IPC: 3.369 (Simulation time: 00 hr 06 min 14 sec)
Heartbeat CPU 0 instructions: 90000000 cycles: 24127135 heartbeat IPC: 3.673 cumulative IPC: 3.44 (Simulation time: 00 hr 07 min 17 sec)
Heartbeat CPU 0 instructions: 100000003 cycles: 26893697 heartbeat IPC: 3.615 cumulative IPC: 3.474 (Simulation time: 00 hr 08 min 20 sec)
Heartbeat CPU 0 instructions: 110000001 cycles: 29799971 heartbeat IPC: 3.441 cumulative IPC: 3.468 (Simulation time: 00 hr 09 min 23 sec)
Heartbeat CPU 0 instructions: 120000001 cycles: 32524189 heartbeat IPC: 3.671 cumulative IPC: 3.496 (Simulation time: 00 hr 10 min 26 sec)
Heartbeat CPU 0 instructions: 130000003 cycles: 35426960 heartbeat IPC: 3.445 cumulative IPC: 3.489 (Simulation time: 00 hr 11 min 29 sec)
Heartbeat CPU 0 instructions: 140000002 cycles: 38265022 heartbeat IPC: 3.524 cumulative IPC: 3.493 (Simulation time: 00 hr 12 min 32 sec)
Heartbeat CPU 0 instructions: 150000001 cycles: 41038933 heartbeat IPC: 3.605 cumulative IPC: 3.504 (Simulation time: 00 hr 13 min 41 sec)
Heartbeat CPU 0 instructions: 160000000 cycles: 43953820 heartbeat IPC: 3.431 cumulative IPC: 3.497 (Simulation time: 00 hr 14 min 48 sec)
Heartbeat CPU 0 instructions: 170000001 cycles: 46884845 heartbeat IPC: 3.412 cumulative IPC: 3.49 (Simulation time: 00 hr 15 min 55 sec)
Heartbeat CPU 0 instructions: 180000000 cycles: 49682531 heartbeat IPC: 3.574 cumulative IPC: 3.496 (Simulation time: 00 hr 17 min 00 sec)
Heartbeat CPU 0 instructions: 190000002 cycles: 52390539 heartbeat IPC: 3.693 cumulative IPC: 3.51 (Simulation time: 00 hr 18 min 04 sec)
Heartbeat CPU 0 instructions: 200000002 cycles: 55219937 heartbeat IPC: 3.534 cumulative IPC: 3.511 (Simulation time: 00 hr 19 min 12 sec)
Heartbeat CPU 0 instructions: 210000000 cycles: 58119126 heartbeat IPC: 3.449 cumulative IPC: 3.507 (Simulation time: 00 hr 20 min 17 sec)
Heartbeat CPU 0 instructions: 220000001 cycles: 60883566 heartbeat IPC: 3.617 cumulative IPC: 3.514 (Simulation time: 00 hr 21 min 20 sec)
Heartbeat CPU 0 instructions: 230000002 cycles: 63776820 heartbeat IPC: 3.456 cumulative IPC: 3.51 (Simulation time: 00 hr 22 min 26 sec)
Heartbeat CPU 0 instructions: 240000004 cycles: 66737011 heartbeat IPC: 3.378 cumulative IPC: 3.503 (Simulation time: 00 hr 23 min 30 sec)
Heartbeat CPU 0 instructions: 250000003 cycles: 69643379 heartbeat IPC: 3.441 cumulative IPC: 3.5 (Simulation time: 00 hr 24 min 38 sec)
Heartbeat CPU 0 instructions: 260000001 cycles: 72434967 heartbeat IPC: 3.582 cumulative IPC: 3.504 (Simulation time: 00 hr 25 min 42 sec)
Heartbeat CPU 0 instructions: 270000002 cycles: 77844963 heartbeat IPC: 1.848 cumulative IPC: 3.367 (Simulation time: 00 hr 27 min 09 sec)
Heartbeat CPU 0 instructions: 280000000 cycles: 86251904 heartbeat IPC: 1.189 cumulative IPC: 3.119 (Simulation time: 00 hr 29 min 05 sec)
Heartbeat CPU 0 instructions: 290000000 cycles: 94146351 heartbeat IPC: 1.267 cumulative IPC: 2.94 (Simulation time: 00 hr 30 min 50 sec)
Heartbeat CPU 0 instructions: 300000003 cycles: 99428215 heartbeat IPC: 1.893 cumulative IPC: 2.876 (Simulation time: 00 hr 32 min 17 sec)
Heartbeat CPU 0 instructions: 310000001 cycles: 108028753 heartbeat IPC: 1.163 cumulative IPC: 2.722 (Simulation time: 00 hr 34 min 10 sec)
Heartbeat CPU 0 instructions: 320000004 cycles: 111871535 heartbeat IPC: 2.602 cumulative IPC: 2.717 (Simulation time: 00 hr 35 min 22 sec)
Heartbeat CPU 0 instructions: 330000000 cycles: 115057252 heartbeat IPC: 3.139 cumulative IPC: 2.73 (Simulation time: 00 hr 36 min 26 sec)
Heartbeat CPU 0 instructions: 340000001 cycles: 118281560 heartbeat IPC: 3.101 cumulative IPC: 2.742 (Simulation time: 00 hr 37 min 34 sec)
Heartbeat CPU 0 instructions: 350000000 cycles: 121620719 heartbeat IPC: 2.995 cumulative IPC: 2.749 (Simulation time: 00 hr 38 min 40 sec)
Heartbeat CPU 0 instructions: 360000004 cycles: 124682280 heartbeat IPC: 3.266 cumulative IPC: 2.763 (Simulation time: 00 hr 39 min 46 sec)
Heartbeat CPU 0 instructions: 370000001 cycles: 127634675 heartbeat IPC: 3.387 cumulative IPC: 2.779 (Simulation time: 00 hr 40 min 55 sec)
Heartbeat CPU 0 instructions: 380000004 cycles: 130573675 heartbeat IPC: 3.403 cumulative IPC: 2.795 (Simulation time: 00 hr 42 min 02 sec)
Heartbeat CPU 0 instructions: 390000002 cycles: 133534292 heartbeat IPC: 3.378 cumulative IPC: 2.809 (Simulation time: 00 hr 43 min 07 sec)
Heartbeat CPU 0 instructions: 400000000 cycles: 136504373 heartbeat IPC: 3.367 cumulative IPC: 2.822 (Simulation time: 00 hr 44 min 12 sec)
Heartbeat CPU 0 instructions: 410000000 cycles: 141018233 heartbeat IPC: 2.215 cumulative IPC: 2.801 (Simulation time: 00 hr 45 min 31 sec)
Heartbeat CPU 0 instructions: 420000003 cycles: 147245987 heartbeat IPC: 1.606 cumulative IPC: 2.746 (Simulation time: 00 hr 47 min 11 sec)
Heartbeat CPU 0 instructions: 430000000 cycles: 152548037 heartbeat IPC: 1.886 cumulative IPC: 2.713 (Simulation time: 00 hr 48 min 42 sec)
Heartbeat CPU 0 instructions: 440000004 cycles: 157753320 heartbeat IPC: 1.921 cumulative IPC: 2.685 (Simulation time: 00 hr 50 min 10 sec)
Heartbeat CPU 0 instructions: 450000001 cycles: 162782478 heartbeat IPC: 1.988 cumulative IPC: 2.662 (Simulation time: 00 hr 51 min 37 sec)
Heartbeat CPU 0 instructions: 460000002 cycles: 171508412 heartbeat IPC: 1.146 cumulative IPC: 2.578 (Simulation time: 00 hr 53 min 32 sec)
Heartbeat CPU 0 instructions: 470000003 cycles: 179041059 heartbeat IPC: 1.328 cumulative IPC: 2.522 (Simulation time: 00 hr 55 min 19 sec)
Heartbeat CPU 0 instructions: 480000000 cycles: 182468881 heartbeat IPC: 2.917 cumulative IPC: 2.53 (Simulation time: 00 hr 56 min 28 sec)
Heartbeat CPU 0 instructions: 490000001 cycles: 186096280 heartbeat IPC: 2.757 cumulative IPC: 2.535 (Simulation time: 00 hr 57 min 39 sec)
Heartbeat CPU 0 instructions: 500000002 cycles: 189410235 heartbeat IPC: 3.018 cumulative IPC: 2.544 (Simulation time: 00 hr 58 min 51 sec)
Heartbeat CPU 0 instructions: 510000000 cycles: 192542075 heartbeat IPC: 3.193 cumulative IPC: 2.555 (Simulation time: 00 hr 59 min 59 sec)
Heartbeat CPU 0 instructions: 520000000 cycles: 195579466 heartbeat IPC: 3.292 cumulative IPC: 2.567 (Simulation time: 01 hr 01 min 05 sec)
Heartbeat CPU 0 instructions: 530000001 cycles: 201625427 heartbeat IPC: 1.654 cumulative IPC: 2.538 (Simulation time: 01 hr 02 min 39 sec)
Heartbeat CPU 0 instructions: 540000000 cycles: 209105608 heartbeat IPC: 1.337 cumulative IPC: 2.492 (Simulation time: 01 hr 04 min 25 sec)
Heartbeat CPU 0 instructions: 550000004 cycles: 219109399 heartbeat IPC: 0.9996 cumulative IPC: 2.42 (Simulation time: 01 hr 06 min 31 sec)
Heartbeat CPU 0 instructions: 560000004 cycles: 222719779 heartbeat IPC: 2.77 cumulative IPC: 2.426 (Simulation time: 01 hr 07 min 41 sec)
Heartbeat CPU 0 instructions: 570000002 cycles: 225545226 heartbeat IPC: 3.539 cumulative IPC: 2.441 (Simulation time: 01 hr 08 min 46 sec)
Heartbeat CPU 0 instructions: 580000000 cycles: 228472546 heartbeat IPC: 3.416 cumulative IPC: 2.454 (Simulation time: 01 hr 09 min 50 sec)
Heartbeat CPU 0 instructions: 590000001 cycles: 231402155 heartbeat IPC: 3.413 cumulative IPC: 2.467 (Simulation time: 01 hr 10 min 56 sec)
Heartbeat CPU 0 instructions: 600000003 cycles: 234095762 heartbeat IPC: 3.712 cumulative IPC: 2.482 (Simulation time: 01 hr 12 min 03 sec)
Heartbeat CPU 0 instructions: 610000001 cycles: 236967124 heartbeat IPC: 3.483 cumulative IPC: 2.495 (Simulation time: 01 hr 13 min 12 sec)
Heartbeat CPU 0 instructions: 620000004 cycles: 239925756 heartbeat IPC: 3.38 cumulative IPC: 2.506 (Simulation time: 01 hr 14 min 21 sec)
Heartbeat CPU 0 instructions: 630000002 cycles: 242736552 heartbeat IPC: 3.558 cumulative IPC: 2.519 (Simulation time: 01 hr 15 min 32 sec)
Heartbeat CPU 0 instructions: 640000004 cycles: 245786311 heartbeat IPC: 3.279 cumulative IPC: 2.529 (Simulation time: 01 hr 16 min 45 sec)
Heartbeat CPU 0 instructions: 650000001 cycles: 248494807 heartbeat IPC: 3.692 cumulative IPC: 2.542 (Simulation time: 01 hr 17 min 53 sec)
Simulation finished CPU 0 instructions: 600000001 cycles: 235994746 cumulative IPC: 2.542 (Simulation time: 01 hr 17 min 53 sec)
Simulation complete CPU 0 instructions: 600000001 cycles: 235994746 cumulative IPC: 2.542 (Simulation time: 01 hr 17 min 53 sec)

ChampSim completed all CPUs

=== Simulation ===
CPU 0 runs traces/400.perlbench-50B.champsimtrace.xz
Region of Interest Statistics

CPU 0 cumulative IPC: 2.542 instructions: 600000001 cycles: 235994746
CPU 0 Branch Prediction Accuracy: 99.01% MPKI: 2.04 Average ROB Occupancy at Mispredict: 94.49
Branch type MPKI
BRANCH_DIRECT_JUMP: 0.0176
BRANCH_INDIRECT: 0.38
BRANCH_CONDITIONAL: 1.19
BRANCH_DIRECT_CALL: 0.0067
BRANCH_INDIRECT_CALL: 0.431
BRANCH_RETURN: 0.0161

LLC TOTAL        ACCESS:    1355314 HIT:     957238 MISS:     398076
LLC LOAD         ACCESS:     579381 HIT:     406938 MISS:     172443
LLC RFO          ACCESS:      47461 HIT:      27996 MISS:      19465
LLC PREFETCH     ACCESS:     579381 HIT:     399025 MISS:     180356
LLC WRITE        ACCESS:     126948 HIT:     115046 MISS:      11902
LLC TRANSLATION  ACCESS:      22143 HIT:       8233 MISS:      13910
LLC PREFETCH REQUESTED:     579381 ISSUED:     579381 USEFUL:      62449 USELESS:      59885
LLC AVERAGE MISS LATENCY: 580.4 cycles
cpu0_DTLB TOTAL        ACCESS:  133213433 HIT:  131857578 MISS:    1355855
cpu0_DTLB LOAD         ACCESS:  133213433 HIT:  131857578 MISS:    1355855
cpu0_DTLB RFO          ACCESS:          0 HIT:          0 MISS:          0
cpu0_DTLB PREFETCH     ACCESS:          0 HIT:          0 MISS:          0
cpu0_DTLB WRITE        ACCESS:          0 HIT:          0 MISS:          0
cpu0_DTLB TRANSLATION  ACCESS:          0 HIT:          0 MISS:          0
cpu0_DTLB PREFETCH REQUESTED:          0 ISSUED:          0 USEFUL:          0 USELESS:          0
cpu0_DTLB AVERAGE MISS LATENCY: 12.86 cycles
cpu0_ITLB TOTAL        ACCESS:    8988372 HIT:    8778809 MISS:     209563
cpu0_ITLB LOAD         ACCESS:    8988372 HIT:    8778809 MISS:     209563
cpu0_ITLB RFO          ACCESS:          0 HIT:          0 MISS:          0
cpu0_ITLB PREFETCH     ACCESS:          0 HIT:          0 MISS:          0
cpu0_ITLB WRITE        ACCESS:          0 HIT:          0 MISS:          0
cpu0_ITLB TRANSLATION  ACCESS:          0 HIT:          0 MISS:          0
cpu0_ITLB PREFETCH REQUESTED:          0 ISSUED:          0 USEFUL:          0 USELESS:          0
cpu0_ITLB AVERAGE MISS LATENCY: 3.32 cycles
cpu0_L1D TOTAL        ACCESS:  178260374 HIT:  174481561 MISS:    3778813
cpu0_L1D LOAD         ACCESS:   92741005 HIT:   89643126 MISS:    3097879
cpu0_L1D RFO          ACCESS:          0 HIT:          0 MISS:          0
cpu0_L1D PREFETCH     ACCESS:          0 HIT:          0 MISS:          0
cpu0_L1D WRITE        ACCESS:   85490840 HIT:   84837018 MISS:     653822
cpu0_L1D TRANSLATION  ACCESS:      28529 HIT:       1417 MISS:      27112
cpu0_L1D PREFETCH REQUESTED:          0 ISSUED:          0 USEFUL:          0 USELESS:          0
cpu0_L1D AVERAGE MISS LATENCY: 40.41 cycles
cpu0_L1I TOTAL        ACCESS:   10509209 HIT:    8611107 MISS:    1898102
cpu0_L1I LOAD         ACCESS:   10509209 HIT:    8611107 MISS:    1898102
cpu0_L1I RFO          ACCESS:          0 HIT:          0 MISS:          0
cpu0_L1I PREFETCH     ACCESS:          0 HIT:          0 MISS:          0
cpu0_L1I WRITE        ACCESS:          0 HIT:          0 MISS:          0
cpu0_L1I TRANSLATION  ACCESS:          0 HIT:          0 MISS:          0
cpu0_L1I PREFETCH REQUESTED:          0 ISSUED:          0 USEFUL:          0 USELESS:          0
cpu0_L1I AVERAGE MISS LATENCY: 9.99 cycles
cpu0_L2C TOTAL        ACCESS:    3839995 HIT:    3187998 MISS:     651997
cpu0_L2C LOAD         ACCESS:    3103710 HIT:    2524329 MISS:     579381
cpu0_L2C RFO          ACCESS:     194910 HIT:     147449 MISS:      47461
cpu0_L2C PREFETCH     ACCESS:          0 HIT:          0 MISS:          0
cpu0_L2C WRITE        ACCESS:     514342 HIT:     511330 MISS:       3012
cpu0_L2C TRANSLATION  ACCESS:      27033 HIT:       4890 MISS:      22143
cpu0_L2C PREFETCH REQUESTED:          0 ISSUED:          0 USEFUL:          0 USELESS:          0
cpu0_L2C AVERAGE MISS LATENCY: 230.8 cycles
cpu0_STLB TOTAL        ACCESS:    1010099 HIT:     983409 MISS:      26690
cpu0_STLB LOAD         ACCESS:    1010099 HIT:     983409 MISS:      26690
cpu0_STLB RFO          ACCESS:          0 HIT:          0 MISS:          0
cpu0_STLB PREFETCH     ACCESS:          0 HIT:          0 MISS:          0
cpu0_STLB WRITE        ACCESS:          0 HIT:          0 MISS:          0
cpu0_STLB TRANSLATION  ACCESS:          0 HIT:          0 MISS:          0
cpu0_STLB PREFETCH REQUESTED:          0 ISSUED:          0 USEFUL:          0 USELESS:          0
cpu0_STLB AVERAGE MISS LATENCY: 455.5 cycles

DRAM Statistics

Channel 0 RQ ROW_BUFFER_HIT:      61910
  ROW_BUFFER_MISS:     258514
 AVG DBUS CONGESTED CYCLE: 3.892
WQ ROW_BUFFER_HIT: Channel 0 
  ROW_BUFFER_MISS:       5360
  FULL:      38460
