WARNING: physical memory size is smaller than virtual memory size.

*** ChampSim Multicore Out-of-Order Simulator ***
Warmup Instructions: 50000000
Simulation Instructions: 600000000
Number of CPUs: 1
Page size: 4096

CPU 0 Tage branch predictor
Off-chip DRAM Size: 4 GiB Channels: 1 Width: 64-bit Data Race: 3200 MT/s
Heartbeat CPU 0 instructions: 10000000 cycles: 2500061 heartbeat IPC: 4 cumulative IPC: 4 (Simulation time: 00 hr 04 min 06 sec)
Heartbeat CPU 0 instructions: 20000000 cycles: 5000061 heartbeat IPC: 4 cumulative IPC: 4 (Simulation time: 00 hr 08 min 16 sec)
Heartbeat CPU 0 instructions: 30000000 cycles: 7500061 heartbeat IPC: 4 cumulative IPC: 4 (Simulation time: 00 hr 12 min 18 sec)
Heartbeat CPU 0 instructions: 40000000 cycles: 10000061 heartbeat IPC: 4 cumulative IPC: 4 (Simulation time: 00 hr 16 min 15 sec)
Heartbeat CPU 0 instructions: 50000000 cycles: 12500061 heartbeat IPC: 4 cumulative IPC: 4 (Simulation time: 00 hr 20 min 15 sec)
Warmup finished CPU 0 instructions: 50000000 cycles: 12500062 cumulative IPC: 4 (Simulation time: 00 hr 20 min 15 sec)
Warmup complete CPU 0 instructions: 50000000 cycles: 12500062 cumulative IPC: 4 (Simulation time: 00 hr 20 min 15 sec)
Heartbeat CPU 0 instructions: 60000004 cycles: 15504489 heartbeat IPC: 3.328 cumulative IPC: 3.328 (Simulation time: 00 hr 24 min 55 sec)
Heartbeat CPU 0 instructions: 70000003 cycles: 18370762 heartbeat IPC: 3.489 cumulative IPC: 3.407 (Simulation time: 00 hr 29 min 41 sec)
Heartbeat CPU 0 instructions: 80000002 cycles: 21382300 heartbeat IPC: 3.321 cumulative IPC: 3.378 (Simulation time: 00 hr 34 min 21 sec)
Heartbeat CPU 0 instructions: 90000000 cycles: 24100329 heartbeat IPC: 3.679 cumulative IPC: 3.448 (Simulation time: 00 hr 38 min 50 sec)
Heartbeat CPU 0 instructions: 100000003 cycles: 26857493 heartbeat IPC: 3.627 cumulative IPC: 3.483 (Simulation time: 00 hr 43 min 21 sec)
Heartbeat CPU 0 instructions: 110000001 cycles: 29755202 heartbeat IPC: 3.451 cumulative IPC: 3.477 (Simulation time: 00 hr 47 min 54 sec)
Heartbeat CPU 0 instructions: 120000001 cycles: 32471687 heartbeat IPC: 3.681 cumulative IPC: 3.505 (Simulation time: 00 hr 52 min 21 sec)
Heartbeat CPU 0 instructions: 130000003 cycles: 35371153 heartbeat IPC: 3.449 cumulative IPC: 3.498 (Simulation time: 00 hr 56 min 54 sec)
Heartbeat CPU 0 instructions: 140000002 cycles: 38204957 heartbeat IPC: 3.529 cumulative IPC: 3.501 (Simulation time: 01 hr 01 min 25 sec)
Heartbeat CPU 0 instructions: 150000001 cycles: 40975005 heartbeat IPC: 3.61 cumulative IPC: 3.512 (Simulation time: 01 hr 05 min 53 sec)
Heartbeat CPU 0 instructions: 160000000 cycles: 43892634 heartbeat IPC: 3.427 cumulative IPC: 3.504 (Simulation time: 01 hr 10 min 26 sec)
Heartbeat CPU 0 instructions: 170000001 cycles: 46821114 heartbeat IPC: 3.415 cumulative IPC: 3.496 (Simulation time: 01 hr 15 min 02 sec)
Heartbeat CPU 0 instructions: 180000000 cycles: 49612148 heartbeat IPC: 3.583 cumulative IPC: 3.503 (Simulation time: 01 hr 19 min 37 sec)
Heartbeat CPU 0 instructions: 190000002 cycles: 52319155 heartbeat IPC: 3.694 cumulative IPC: 3.516 (Simulation time: 01 hr 24 min 14 sec)
Heartbeat CPU 0 instructions: 200000002 cycles: 55139904 heartbeat IPC: 3.545 cumulative IPC: 3.518 (Simulation time: 01 hr 28 min 50 sec)
Heartbeat CPU 0 instructions: 210000000 cycles: 58032602 heartbeat IPC: 3.457 cumulative IPC: 3.514 (Simulation time: 01 hr 33 min 26 sec)
Heartbeat CPU 0 instructions: 220000001 cycles: 60784611 heartbeat IPC: 3.634 cumulative IPC: 3.521 (Simulation time: 01 hr 38 min 00 sec)
Heartbeat CPU 0 instructions: 230000002 cycles: 63673784 heartbeat IPC: 3.461 cumulative IPC: 3.517 (Simulation time: 01 hr 42 min 36 sec)
Heartbeat CPU 0 instructions: 240000004 cycles: 66624801 heartbeat IPC: 3.389 cumulative IPC: 3.51 (Simulation time: 01 hr 47 min 14 sec)
Heartbeat CPU 0 instructions: 250000003 cycles: 69515661 heartbeat IPC: 3.459 cumulative IPC: 3.508 (Simulation time: 01 hr 51 min 48 sec)
Heartbeat CPU 0 instructions: 260000001 cycles: 72300103 heartbeat IPC: 3.591 cumulative IPC: 3.512 (Simulation time: 01 hr 56 min 20 sec)
Heartbeat CPU 0 instructions: 270000002 cycles: 78059363 heartbeat IPC: 1.736 cumulative IPC: 3.356 (Simulation time: 02 hr 02 min 43 sec)
Heartbeat CPU 0 instructions: 280000000 cycles: 86668517 heartbeat IPC: 1.162 cumulative IPC: 3.101 (Simulation time: 02 hr 11 min 01 sec)
Heartbeat CPU 0 instructions: 290000000 cycles: 94398828 heartbeat IPC: 1.294 cumulative IPC: 2.93 (Simulation time: 02 hr 18 min 55 sec)
Heartbeat CPU 0 instructions: 300000003 cycles: 99721316 heartbeat IPC: 1.879 cumulative IPC: 2.866 (Simulation time: 02 hr 25 min 31 sec)
Heartbeat CPU 0 instructions: 310000001 cycles: 107740564 heartbeat IPC: 1.247 cumulative IPC: 2.73 (Simulation time: 02 hr 33 min 46 sec)
Heartbeat CPU 0 instructions: 320000004 cycles: 111566877 heartbeat IPC: 2.613 cumulative IPC: 2.725 (Simulation time: 02 hr 39 min 12 sec)
Heartbeat CPU 0 instructions: 330000000 cycles: 114714580 heartbeat IPC: 3.177 cumulative IPC: 2.739 (Simulation time: 02 hr 44 min 02 sec)
Heartbeat CPU 0 instructions: 340000001 cycles: 117842165 heartbeat IPC: 3.197 cumulative IPC: 2.753 (Simulation time: 02 hr 48 min 50 sec)
Heartbeat CPU 0 instructions: 350000000 cycles: 121060808 heartbeat IPC: 3.107 cumulative IPC: 2.763 (Simulation time: 02 hr 53 min 45 sec)
Heartbeat CPU 0 instructions: 360000004 cycles: 124020659 heartbeat IPC: 3.379 cumulative IPC: 2.78 (Simulation time: 02 hr 58 min 27 sec)
Heartbeat CPU 0 instructions: 370000001 cycles: 126917753 heartbeat IPC: 3.452 cumulative IPC: 2.797 (Simulation time: 03 hr 03 min 05 sec)
Heartbeat CPU 0 instructions: 380000004 cycles: 129804779 heartbeat IPC: 3.464 cumulative IPC: 2.813 (Simulation time: 03 hr 07 min 45 sec)
Heartbeat CPU 0 instructions: 390000002 cycles: 132704111 heartbeat IPC: 3.449 cumulative IPC: 2.829 (Simulation time: 03 hr 12 min 26 sec)
Heartbeat CPU 0 instructions: 400000000 cycles: 135634258 heartbeat IPC: 3.413 cumulative IPC: 2.842 (Simulation time: 03 hr 17 min 09 sec)
Heartbeat CPU 0 instructions: 410000000 cycles: 140092975 heartbeat IPC: 2.243 cumulative IPC: 2.821 (Simulation time: 03 hr 22 min 56 sec)
Heartbeat CPU 0 instructions: 420000003 cycles: 145632661 heartbeat IPC: 1.805 cumulative IPC: 2.779 (Simulation time: 03 hr 29 min 36 sec)
Heartbeat CPU 0 instructions: 430000000 cycles: 150669668 heartbeat IPC: 1.985 cumulative IPC: 2.75 (Simulation time: 03 hr 36 min 00 sec)
Heartbeat CPU 0 instructions: 440000004 cycles: 155541941 heartbeat IPC: 2.052 cumulative IPC: 2.726 (Simulation time: 03 hr 42 min 14 sec)
Heartbeat CPU 0 instructions: 450000003 cycles: 160257568 heartbeat IPC: 2.121 cumulative IPC: 2.707 (Simulation time: 03 hr 48 min 21 sec)
Heartbeat CPU 0 instructions: 460000002 cycles: 167597024 heartbeat IPC: 1.362 cumulative IPC: 2.644 (Simulation time: 03 hr 56 min 05 sec)
Heartbeat CPU 0 instructions: 470000003 cycles: 174544207 heartbeat IPC: 1.439 cumulative IPC: 2.592 (Simulation time: 04 hr 03 min 35 sec)
Heartbeat CPU 0 instructions: 480000000 cycles: 177878920 heartbeat IPC: 2.999 cumulative IPC: 2.6 (Simulation time: 04 hr 08 min 32 sec)
Heartbeat CPU 0 instructions: 490000001 cycles: 181320694 heartbeat IPC: 2.905 cumulative IPC: 2.606 (Simulation time: 04 hr 13 min 34 sec)
Heartbeat CPU 0 instructions: 500000002 cycles: 184461848 heartbeat IPC: 3.184 cumulative IPC: 2.617 (Simulation time: 04 hr 18 min 23 sec)
Heartbeat CPU 0 instructions: 510000000 cycles: 187472678 heartbeat IPC: 3.321 cumulative IPC: 2.629 (Simulation time: 04 hr 23 min 08 sec)
Heartbeat CPU 0 instructions: 520000000 cycles: 190415044 heartbeat IPC: 3.399 cumulative IPC: 2.642 (Simulation time: 04 hr 27 min 50 sec)
Heartbeat CPU 0 instructions: 530000001 cycles: 195715742 heartbeat IPC: 1.887 cumulative IPC: 2.62 (Simulation time: 04 hr 34 min 12 sec)
Heartbeat CPU 0 instructions: 540000000 cycles: 201940400 heartbeat IPC: 1.607 cumulative IPC: 2.587 (Simulation time: 04 hr 41 min 14 sec)
Heartbeat CPU 0 instructions: 550000004 cycles: 210532779 heartbeat IPC: 1.164 cumulative IPC: 2.525 (Simulation time: 04 hr 49 min 42 sec)
Heartbeat CPU 0 instructions: 560000004 cycles: 214007183 heartbeat IPC: 2.878 cumulative IPC: 2.531 (Simulation time: 04 hr 54 min 51 sec)
Heartbeat CPU 0 instructions: 570000002 cycles: 216828356 heartbeat IPC: 3.545 cumulative IPC: 2.545 (Simulation time: 04 hr 59 min 38 sec)
Heartbeat CPU 0 instructions: 580000000 cycles: 219749674 heartbeat IPC: 3.423 cumulative IPC: 2.557 (Simulation time: 05 hr 04 min 37 sec)
Heartbeat CPU 0 instructions: 590000001 cycles: 222672569 heartbeat IPC: 3.421 cumulative IPC: 2.569 (Simulation time: 05 hr 09 min 19 sec)
Heartbeat CPU 0 instructions: 600000003 cycles: 225365816 heartbeat IPC: 3.713 cumulative IPC: 2.584 (Simulation time: 05 hr 14 min 05 sec)
Heartbeat CPU 0 instructions: 610000001 cycles: 228230372 heartbeat IPC: 3.491 cumulative IPC: 2.596 (Simulation time: 05 hr 19 min 00 sec)
Heartbeat CPU 0 instructions: 620000004 cycles: 231180486 heartbeat IPC: 3.39 cumulative IPC: 2.607 (Simulation time: 05 hr 23 min 51 sec)
Heartbeat CPU 0 instructions: 630000002 cycles: 233989103 heartbeat IPC: 3.56 cumulative IPC: 2.619 (Simulation time: 05 hr 28 min 43 sec)
Heartbeat CPU 0 instructions: 640000004 cycles: 237034841 heartbeat IPC: 3.283 cumulative IPC: 2.628 (Simulation time: 05 hr 33 min 42 sec)
Heartbeat CPU 0 instructions: 650000001 cycles: 239745674 heartbeat IPC: 3.689 cumulative IPC: 2.64 (Simulation time: 05 hr 38 min 24 sec)
Simulation finished CPU 0 instructions: 600000001 cycles: 227245613 cumulative IPC: 2.64 (Simulation time: 05 hr 38 min 24 sec)
Simulation complete CPU 0 instructions: 600000001 cycles: 227245613 cumulative IPC: 2.64 (Simulation time: 05 hr 38 min 24 sec)

ChampSim completed all CPUs

=== Simulation ===
CPU 0 runs traces/400.perlbench-50B.champsimtrace.xz
Region of Interest Statistics

CPU 0 cumulative IPC: 2.64 instructions: 600000001 cycles: 227245613
CPU 0 Branch Prediction Accuracy: 99.01% MPKI: 2.04 Average ROB Occupancy at Mispredict: 94.3
Branch type MPKI
BRANCH_DIRECT_JUMP: 0.0176
BRANCH_INDIRECT: 0.38
BRANCH_CONDITIONAL: 1.19
BRANCH_DIRECT_CALL: 0.0067
BRANCH_INDIRECT_CALL: 0.431
BRANCH_RETURN: 0.0161

LLC TOTAL        ACCESS:     771483 HIT:     561633 MISS:     209850
LLC LOAD         ACCESS:     576049 HIT:     400932 MISS:     175117
LLC RFO          ACCESS:      47021 HIT:      32686 MISS:      14335
LLC PREFETCH     ACCESS:          0 HIT:          0 MISS:          0
LLC WRITE        ACCESS:     126440 HIT:     119003 MISS:       7437
LLC TRANSLATION  ACCESS:      21973 HIT:       9012 MISS:      12961
LLC PREFETCH REQUESTED:          0 ISSUED:          0 USEFUL:          0 USELESS:          0
LLC AVERAGE MISS LATENCY: 540.1 cycles
cpu0_DTLB TOTAL        ACCESS:  133212733 HIT:  131856874 MISS:    1355859
cpu0_DTLB LOAD         ACCESS:  133212733 HIT:  131856874 MISS:    1355859
cpu0_DTLB RFO          ACCESS:          0 HIT:          0 MISS:          0
cpu0_DTLB PREFETCH     ACCESS:          0 HIT:          0 MISS:          0
cpu0_DTLB WRITE        ACCESS:          0 HIT:          0 MISS:          0
cpu0_DTLB TRANSLATION  ACCESS:          0 HIT:          0 MISS:          0
cpu0_DTLB PREFETCH REQUESTED:          0 ISSUED:          0 USEFUL:          0 USELESS:          0
cpu0_DTLB AVERAGE MISS LATENCY: 11.46 cycles
cpu0_ITLB TOTAL        ACCESS:    8992643 HIT:    8783255 MISS:     209388
cpu0_ITLB LOAD         ACCESS:    8992643 HIT:    8783255 MISS:     209388
cpu0_ITLB RFO          ACCESS:          0 HIT:          0 MISS:          0
cpu0_ITLB PREFETCH     ACCESS:          0 HIT:          0 MISS:          0
cpu0_ITLB WRITE        ACCESS:          0 HIT:          0 MISS:          0
cpu0_ITLB TRANSLATION  ACCESS:          0 HIT:          0 MISS:          0
cpu0_ITLB PREFETCH REQUESTED:          0 ISSUED:          0 USEFUL:          0 USELESS:          0
cpu0_ITLB AVERAGE MISS LATENCY: 2.828 cycles
cpu0_L1D TOTAL        ACCESS:  178258102 HIT:  174487308 MISS:    3770794
cpu0_L1D LOAD         ACCESS:   92739327 HIT:   89642356 MISS:    3096971
cpu0_L1D RFO          ACCESS:          0 HIT:          0 MISS:          0
cpu0_L1D PREFETCH     ACCESS:          0 HIT:          0 MISS:          0
cpu0_L1D WRITE        ACCESS:   85490253 HIT:   84843548 MISS:     646705
cpu0_L1D TRANSLATION  ACCESS:      28522 HIT:       1404 MISS:      27118
cpu0_L1D PREFETCH REQUESTED:          0 ISSUED:          0 USEFUL:          0 USELESS:          0
cpu0_L1D AVERAGE MISS LATENCY: 34.69 cycles
cpu0_L1I TOTAL        ACCESS:   10512699 HIT:    8614001 MISS:    1898698
cpu0_L1I LOAD         ACCESS:   10512699 HIT:    8614001 MISS:    1898698
cpu0_L1I RFO          ACCESS:          0 HIT:          0 MISS:          0
cpu0_L1I PREFETCH     ACCESS:          0 HIT:          0 MISS:          0
cpu0_L1I WRITE        ACCESS:          0 HIT:          0 MISS:          0
cpu0_L1I TRANSLATION  ACCESS:          0 HIT:          0 MISS:          0
cpu0_L1I PREFETCH REQUESTED:          0 ISSUED:          0 USEFUL:          0 USELESS:          0
cpu0_L1I AVERAGE MISS LATENCY: 9.086 cycles
cpu0_L2C TOTAL        ACCESS:    3840369 HIT:    3192164 MISS:     648205
cpu0_L2C LOAD         ACCESS:    3103836 HIT:    2527787 MISS:     576049
cpu0_L2C RFO          ACCESS:     194861 HIT:     147840 MISS:      47021
cpu0_L2C PREFETCH     ACCESS:          0 HIT:          0 MISS:          0
cpu0_L2C WRITE        ACCESS:     514640 HIT:     511478 MISS:       3162
cpu0_L2C TRANSLATION  ACCESS:      27032 HIT:       5059 MISS:      21973
cpu0_L2C PREFETCH REQUESTED:          0 ISSUED:          0 USEFUL:          0 USELESS:          0
cpu0_L2C AVERAGE MISS LATENCY: 195.1 cycles
cpu0_STLB TOTAL        ACCESS:    1009989 HIT:     983301 MISS:      26688
cpu0_STLB LOAD         ACCESS:    1009989 HIT:     983301 MISS:      26688
cpu0_STLB RFO          ACCESS:          0 HIT:          0 MISS:          0
cpu0_STLB PREFETCH     ACCESS:          0 HIT:          0 MISS:          0
cpu0_STLB WRITE        ACCESS:          0 HIT:          0 MISS:          0
cpu0_STLB TRANSLATION  ACCESS:          0 HIT:          0 MISS:          0
cpu0_STLB PREFETCH REQUESTED:          0 ISSUED:          0 USEFUL:          0 USELESS:          0
cpu0_STLB AVERAGE MISS LATENCY: 377.2 cycles

DRAM Statistics

Channel 0 RQ ROW_BUFFER_HIT:      43219
  ROW_BUFFER_MISS:     159175
 AVG DBUS CONGESTED CYCLE: 3.788
WQ ROW_BUFFER_HIT: Channel 0 
  ROW_BUFFER_MISS:       5354
  FULL:      14721
