WARNING: physical memory size is smaller than virtual memory size.

*** ChampSim Multicore Out-of-Order Simulator ***
Warmup Instructions: 50000000
Simulation Instructions: 600000000
Number of CPUs: 1
Page size: 4096

Off-chip DRAM Size: 4 GiB Channels: 1 Width: 64-bit Data Race: 3200 MT/s
Heartbeat CPU 0 instructions: 10000000 cycles: 2500061 heartbeat IPC: 4 cumulative IPC: 4 (Simulation time: 00 hr 00 min 49 sec)
Heartbeat CPU 0 instructions: 20000000 cycles: 5000061 heartbeat IPC: 4 cumulative IPC: 4 (Simulation time: 00 hr 01 min 38 sec)
Heartbeat CPU 0 instructions: 30000000 cycles: 7500061 heartbeat IPC: 4 cumulative IPC: 4 (Simulation time: 00 hr 02 min 24 sec)
Heartbeat CPU 0 instructions: 40000000 cycles: 10000061 heartbeat IPC: 4 cumulative IPC: 4 (Simulation time: 00 hr 03 min 11 sec)
Heartbeat CPU 0 instructions: 50000000 cycles: 12500061 heartbeat IPC: 4 cumulative IPC: 4 (Simulation time: 00 hr 03 min 58 sec)
Warmup finished CPU 0 instructions: 50000000 cycles: 12500062 cumulative IPC: 4 (Simulation time: 00 hr 03 min 58 sec)
Warmup complete CPU 0 instructions: 50000000 cycles: 12500062 cumulative IPC: 4 (Simulation time: 00 hr 03 min 58 sec)
Heartbeat CPU 0 instructions: 60000002 cycles: 16907366 heartbeat IPC: 2.269 cumulative IPC: 2.269 (Simulation time: 00 hr 05 min 07 sec)
Heartbeat CPU 0 instructions: 70000003 cycles: 21889050 heartbeat IPC: 2.007 cumulative IPC: 2.13 (Simulation time: 00 hr 06 min 18 sec)
Heartbeat CPU 0 instructions: 80000001 cycles: 27230745 heartbeat IPC: 1.872 cumulative IPC: 2.037 (Simulation time: 00 hr 07 min 31 sec)
Heartbeat CPU 0 instructions: 90000000 cycles: 31527294 heartbeat IPC: 2.327 cumulative IPC: 2.102 (Simulation time: 00 hr 08 min 41 sec)
Heartbeat CPU 0 instructions: 100000003 cycles: 36379334 heartbeat IPC: 2.061 cumulative IPC: 2.094 (Simulation time: 00 hr 09 min 43 sec)
Heartbeat CPU 0 instructions: 110000002 cycles: 41247374 heartbeat IPC: 2.054 cumulative IPC: 2.087 (Simulation time: 00 hr 10 min 44 sec)
Heartbeat CPU 0 instructions: 120000001 cycles: 46240828 heartbeat IPC: 2.003 cumulative IPC: 2.075 (Simulation time: 00 hr 11 min 52 sec)
Heartbeat CPU 0 instructions: 130000003 cycles: 50807189 heartbeat IPC: 2.19 cumulative IPC: 2.088 (Simulation time: 00 hr 12 min 57 sec)
Heartbeat CPU 0 instructions: 140000002 cycles: 55694832 heartbeat IPC: 2.046 cumulative IPC: 2.084 (Simulation time: 00 hr 14 min 04 sec)
Heartbeat CPU 0 instructions: 150000001 cycles: 60360024 heartbeat IPC: 2.144 cumulative IPC: 2.089 (Simulation time: 00 hr 15 min 09 sec)
Heartbeat CPU 0 instructions: 160000000 cycles: 64996045 heartbeat IPC: 2.157 cumulative IPC: 2.095 (Simulation time: 00 hr 16 min 15 sec)
Heartbeat CPU 0 instructions: 170000000 cycles: 70325364 heartbeat IPC: 1.876 cumulative IPC: 2.075 (Simulation time: 00 hr 17 min 22 sec)
Heartbeat CPU 0 instructions: 180000001 cycles: 76043102 heartbeat IPC: 1.749 cumulative IPC: 2.046 (Simulation time: 00 hr 18 min 34 sec)
Heartbeat CPU 0 instructions: 190000002 cycles: 80511237 heartbeat IPC: 2.238 cumulative IPC: 2.058 (Simulation time: 00 hr 19 min 34 sec)
Heartbeat CPU 0 instructions: 200000002 cycles: 85411245 heartbeat IPC: 2.041 cumulative IPC: 2.057 (Simulation time: 00 hr 20 min 35 sec)
Heartbeat CPU 0 instructions: 210000000 cycles: 90413026 heartbeat IPC: 1.999 cumulative IPC: 2.054 (Simulation time: 00 hr 21 min 40 sec)
Heartbeat CPU 0 instructions: 220000001 cycles: 95334767 heartbeat IPC: 2.032 cumulative IPC: 2.052 (Simulation time: 00 hr 22 min 47 sec)
Heartbeat CPU 0 instructions: 230000002 cycles: 100578650 heartbeat IPC: 1.907 cumulative IPC: 2.044 (Simulation time: 00 hr 23 min 58 sec)
Heartbeat CPU 0 instructions: 240000001 cycles: 105540806 heartbeat IPC: 2.015 cumulative IPC: 2.042 (Simulation time: 00 hr 25 min 05 sec)
Heartbeat CPU 0 instructions: 250000003 cycles: 110715200 heartbeat IPC: 1.933 cumulative IPC: 2.036 (Simulation time: 00 hr 26 min 12 sec)
Heartbeat CPU 0 instructions: 260000001 cycles: 115571230 heartbeat IPC: 2.059 cumulative IPC: 2.037 (Simulation time: 00 hr 27 min 19 sec)
Heartbeat CPU 0 instructions: 270000000 cycles: 123225925 heartbeat IPC: 1.306 cumulative IPC: 1.987 (Simulation time: 00 hr 28 min 49 sec)
Heartbeat CPU 0 instructions: 280000000 cycles: 133949548 heartbeat IPC: 0.9325 cumulative IPC: 1.894 (Simulation time: 00 hr 30 min 42 sec)
Heartbeat CPU 0 instructions: 290000001 cycles: 143151542 heartbeat IPC: 1.087 cumulative IPC: 1.837 (Simulation time: 00 hr 32 min 24 sec)
Heartbeat CPU 0 instructions: 300000003 cycles: 150537112 heartbeat IPC: 1.354 cumulative IPC: 1.811 (Simulation time: 00 hr 33 min 56 sec)
Heartbeat CPU 0 instructions: 310000004 cycles: 160948392 heartbeat IPC: 0.9605 cumulative IPC: 1.751 (Simulation time: 00 hr 35 min 53 sec)
Heartbeat CPU 0 instructions: 320000004 cycles: 166547575 heartbeat IPC: 1.786 cumulative IPC: 1.753 (Simulation time: 00 hr 37 min 11 sec)
Heartbeat CPU 0 instructions: 330000000 cycles: 171820368 heartbeat IPC: 1.897 cumulative IPC: 1.757 (Simulation time: 00 hr 38 min 23 sec)
Heartbeat CPU 0 instructions: 340000001 cycles: 176900499 heartbeat IPC: 1.968 cumulative IPC: 1.764 (Simulation time: 00 hr 39 min 31 sec)
Heartbeat CPU 0 instructions: 350000000 cycles: 182211088 heartbeat IPC: 1.883 cumulative IPC: 1.768 (Simulation time: 00 hr 40 min 44 sec)
Heartbeat CPU 0 instructions: 360000003 cycles: 187283604 heartbeat IPC: 1.971 cumulative IPC: 1.774 (Simulation time: 00 hr 41 min 53 sec)
Heartbeat CPU 0 instructions: 370000001 cycles: 192301760 heartbeat IPC: 1.993 cumulative IPC: 1.78 (Simulation time: 00 hr 43 min 00 sec)
Heartbeat CPU 0 instructions: 380000004 cycles: 197599589 heartbeat IPC: 1.888 cumulative IPC: 1.783 (Simulation time: 00 hr 44 min 10 sec)
Heartbeat CPU 0 instructions: 390000002 cycles: 202908810 heartbeat IPC: 1.884 cumulative IPC: 1.786 (Simulation time: 00 hr 45 min 19 sec)
Heartbeat CPU 0 instructions: 400000000 cycles: 208322056 heartbeat IPC: 1.847 cumulative IPC: 1.787 (Simulation time: 00 hr 46 min 30 sec)
Heartbeat CPU 0 instructions: 410000000 cycles: 215651234 heartbeat IPC: 1.364 cumulative IPC: 1.772 (Simulation time: 00 hr 47 min 57 sec)
Heartbeat CPU 0 instructions: 420000001 cycles: 225568583 heartbeat IPC: 1.008 cumulative IPC: 1.737 (Simulation time: 00 hr 49 min 49 sec)
Heartbeat CPU 0 instructions: 430000000 cycles: 232416598 heartbeat IPC: 1.46 cumulative IPC: 1.728 (Simulation time: 00 hr 51 min 19 sec)
Heartbeat CPU 0 instructions: 440000002 cycles: 239103889 heartbeat IPC: 1.495 cumulative IPC: 1.721 (Simulation time: 00 hr 52 min 47 sec)
Heartbeat CPU 0 instructions: 450000000 cycles: 245698646 heartbeat IPC: 1.516 cumulative IPC: 1.715 (Simulation time: 00 hr 54 min 13 sec)
Heartbeat CPU 0 instructions: 460000002 cycles: 254973192 heartbeat IPC: 1.078 cumulative IPC: 1.691 (Simulation time: 00 hr 56 min 01 sec)
Heartbeat CPU 0 instructions: 470000000 cycles: 264220254 heartbeat IPC: 1.081 cumulative IPC: 1.669 (Simulation time: 00 hr 57 min 47 sec)
Heartbeat CPU 0 instructions: 480000000 cycles: 269618247 heartbeat IPC: 1.853 cumulative IPC: 1.672 (Simulation time: 00 hr 59 min 00 sec)
Heartbeat CPU 0 instructions: 490000001 cycles: 275276672 heartbeat IPC: 1.767 cumulative IPC: 1.674 (Simulation time: 01 hr 00 min 15 sec)
Heartbeat CPU 0 instructions: 500000002 cycles: 280807815 heartbeat IPC: 1.808 cumulative IPC: 1.677 (Simulation time: 01 hr 01 min 29 sec)
Heartbeat CPU 0 instructions: 510000000 cycles: 286452842 heartbeat IPC: 1.771 cumulative IPC: 1.679 (Simulation time: 01 hr 02 min 44 sec)
Heartbeat CPU 0 instructions: 520000000 cycles: 292151551 heartbeat IPC: 1.755 cumulative IPC: 1.681 (Simulation time: 01 hr 03 min 58 sec)
Heartbeat CPU 0 instructions: 530000001 cycles: 302105791 heartbeat IPC: 1.005 cumulative IPC: 1.657 (Simulation time: 01 hr 05 min 50 sec)
Heartbeat CPU 0 instructions: 540000000 cycles: 311320809 heartbeat IPC: 1.085 cumulative IPC: 1.64 (Simulation time: 01 hr 07 min 38 sec)
Heartbeat CPU 0 instructions: 550000002 cycles: 322750945 heartbeat IPC: 0.8749 cumulative IPC: 1.612 (Simulation time: 01 hr 09 min 45 sec)
Heartbeat CPU 0 instructions: 560000004 cycles: 327439862 heartbeat IPC: 2.133 cumulative IPC: 1.619 (Simulation time: 01 hr 10 min 49 sec)
Heartbeat CPU 0 instructions: 570000001 cycles: 331839523 heartbeat IPC: 2.273 cumulative IPC: 1.628 (Simulation time: 01 hr 11 min 54 sec)
Heartbeat CPU 0 instructions: 580000003 cycles: 336067552 heartbeat IPC: 2.365 cumulative IPC: 1.638 (Simulation time: 01 hr 13 min 00 sec)
Heartbeat CPU 0 instructions: 590000001 cycles: 340960487 heartbeat IPC: 2.044 cumulative IPC: 1.644 (Simulation time: 01 hr 14 min 04 sec)
Heartbeat CPU 0 instructions: 600000003 cycles: 345595164 heartbeat IPC: 2.158 cumulative IPC: 1.651 (Simulation time: 01 hr 15 min 12 sec)
Heartbeat CPU 0 instructions: 610000001 cycles: 350446617 heartbeat IPC: 2.061 cumulative IPC: 1.657 (Simulation time: 01 hr 16 min 24 sec)
Heartbeat CPU 0 instructions: 620000000 cycles: 355507963 heartbeat IPC: 1.976 cumulative IPC: 1.662 (Simulation time: 01 hr 17 min 38 sec)
Heartbeat CPU 0 instructions: 630000002 cycles: 359750425 heartbeat IPC: 2.357 cumulative IPC: 1.67 (Simulation time: 01 hr 18 min 48 sec)
Heartbeat CPU 0 instructions: 640000004 cycles: 365065837 heartbeat IPC: 1.881 cumulative IPC: 1.673 (Simulation time: 01 hr 20 min 05 sec)
Heartbeat CPU 0 instructions: 650000001 cycles: 369827433 heartbeat IPC: 2.1 cumulative IPC: 1.679 (Simulation time: 01 hr 21 min 15 sec)
Simulation finished CPU 0 instructions: 600000001 cycles: 357327372 cumulative IPC: 1.679 (Simulation time: 01 hr 21 min 15 sec)
Simulation complete CPU 0 instructions: 600000001 cycles: 357327372 cumulative IPC: 1.679 (Simulation time: 01 hr 21 min 15 sec)

ChampSim completed all CPUs

=== Simulation ===
CPU 0 runs traces/400.perlbench-50B.champsimtrace.xz
Region of Interest Statistics

CPU 0 cumulative IPC: 1.679 instructions: 600000001 cycles: 357327372
CPU 0 Branch Prediction Accuracy: 93.83% MPKI: 12.71 Average ROB Occupancy at Mispredict: 29.38
Branch type MPKI
BRANCH_DIRECT_JUMP: 0.0176
BRANCH_INDIRECT: 0.38
BRANCH_CONDITIONAL: 11.9
BRANCH_DIRECT_CALL: 0.0067
BRANCH_INDIRECT_CALL: 0.431
BRANCH_RETURN: 0.0161

LLC TOTAL        ACCESS:     851294 HIT:     598540 MISS:     252754
LLC LOAD         ACCESS:     587666 HIT:     378729 MISS:     208937
LLC RFO          ACCESS:      47487 HIT:      35150 MISS:      12337
LLC PREFETCH     ACCESS:      65776 HIT:      44851 MISS:      20925
LLC WRITE        ACCESS:     128302 HIT:     128291 MISS:         11
LLC TRANSLATION  ACCESS:      22063 HIT:      11519 MISS:      10544
LLC PREFETCH REQUESTED:      65776 ISSUED:      65776 USEFUL:      12035 USELESS:       4861
LLC AVERAGE MISS LATENCY: 493.6 cycles
cpu0_DTLB TOTAL        ACCESS:  156789329 HIT:  155488750 MISS:    1300579
cpu0_DTLB LOAD         ACCESS:  156789329 HIT:  155488750 MISS:    1300579
cpu0_DTLB RFO          ACCESS:          0 HIT:          0 MISS:          0
cpu0_DTLB PREFETCH     ACCESS:          0 HIT:          0 MISS:          0
cpu0_DTLB WRITE        ACCESS:          0 HIT:          0 MISS:          0
cpu0_DTLB TRANSLATION  ACCESS:          0 HIT:          0 MISS:          0
cpu0_DTLB PREFETCH REQUESTED:          0 ISSUED:          0 USEFUL:          0 USELESS:          0
cpu0_DTLB AVERAGE MISS LATENCY: 10.94 cycles
cpu0_ITLB TOTAL        ACCESS:    8933431 HIT:    8734842 MISS:     198589
cpu0_ITLB LOAD         ACCESS:    8933431 HIT:    8734842 MISS:     198589
cpu0_ITLB RFO          ACCESS:          0 HIT:          0 MISS:          0
cpu0_ITLB PREFETCH     ACCESS:          0 HIT:          0 MISS:          0
cpu0_ITLB WRITE        ACCESS:          0 HIT:          0 MISS:          0
cpu0_ITLB TRANSLATION  ACCESS:          0 HIT:          0 MISS:          0
cpu0_ITLB PREFETCH REQUESTED:          0 ISSUED:          0 USEFUL:          0 USELESS:          0
cpu0_ITLB AVERAGE MISS LATENCY: 2.91 cycles
cpu0_L1D TOTAL        ACCESS:  203635460 HIT:  199981996 MISS:    3653464
cpu0_L1D LOAD         ACCESS:  117958590 HIT:  114950905 MISS:    3007685
cpu0_L1D RFO          ACCESS:          0 HIT:          0 MISS:          0
cpu0_L1D PREFETCH     ACCESS:          0 HIT:          0 MISS:          0
cpu0_L1D WRITE        ACCESS:   85648324 HIT:   85029687 MISS:     618637
cpu0_L1D TRANSLATION  ACCESS:      28546 HIT:       1404 MISS:      27142
cpu0_L1D PREFETCH REQUESTED:          0 ISSUED:          0 USEFUL:          0 USELESS:          0
cpu0_L1D AVERAGE MISS LATENCY: 37.43 cycles
cpu0_L1I TOTAL        ACCESS:   10372051 HIT:    8574607 MISS:    1797444
cpu0_L1I LOAD         ACCESS:   10372051 HIT:    8574607 MISS:    1797444
cpu0_L1I RFO          ACCESS:          0 HIT:          0 MISS:          0
cpu0_L1I PREFETCH     ACCESS:          0 HIT:          0 MISS:          0
cpu0_L1I WRITE        ACCESS:          0 HIT:          0 MISS:          0
cpu0_L1I TRANSLATION  ACCESS:          0 HIT:          0 MISS:          0
cpu0_L1I PREFETCH REQUESTED:          0 ISSUED:          0 USEFUL:          0 USELESS:          0
cpu0_L1I AVERAGE MISS LATENCY: 9.632 cycles
cpu0_L2C TOTAL        ACCESS:    3837191 HIT:    3176692 MISS:     660499
cpu0_L2C LOAD         ACCESS:    3106410 HIT:    2518744 MISS:     587666
cpu0_L2C RFO          ACCESS:     191785 HIT:     144298 MISS:      47487
cpu0_L2C PREFETCH     ACCESS:          0 HIT:          0 MISS:          0
cpu0_L2C WRITE        ACCESS:     511935 HIT:     508652 MISS:       3283
cpu0_L2C TRANSLATION  ACCESS:      27061 HIT:       4998 MISS:      22063
cpu0_L2C PREFETCH REQUESTED:          0 ISSUED:          0 USEFUL:          0 USELESS:          0
cpu0_L2C AVERAGE MISS LATENCY: 192.5 cycles
cpu0_STLB TOTAL        ACCESS:    1009254 HIT:     982560 MISS:      26694
cpu0_STLB LOAD         ACCESS:    1009254 HIT:     982560 MISS:      26694
cpu0_STLB RFO          ACCESS:          0 HIT:          0 MISS:          0
cpu0_STLB PREFETCH     ACCESS:          0 HIT:          0 MISS:          0
cpu0_STLB WRITE        ACCESS:          0 HIT:          0 MISS:          0
cpu0_STLB TRANSLATION  ACCESS:          0 HIT:          0 MISS:          0
cpu0_STLB PREFETCH REQUESTED:          0 ISSUED:          0 USEFUL:          0 USELESS:          0
cpu0_STLB AVERAGE MISS LATENCY: 308.7 cycles

DRAM Statistics

Channel 0 RQ ROW_BUFFER_HIT:      68792
  ROW_BUFFER_MISS:     179740
 AVG DBUS CONGESTED CYCLE: 3.744
WQ ROW_BUFFER_HIT: Channel 0 
  ROW_BUFFER_MISS:       5131
  FULL:       9216
