WARNING: physical memory size is smaller than virtual memory size.

*** ChampSim Multicore Out-of-Order Simulator ***
Warmup Instructions: 50000000
Simulation Instructions: 600000000
Number of CPUs: 1
Page size: 4096

CPU 0 Tage branch predictor
Off-chip DRAM Size: 4 GiB Channels: 1 Width: 64-bit Data Race: 3200 MT/s
Heartbeat CPU 0 instructions: 10000000 cycles: 2500061 heartbeat IPC: 4 cumulative IPC: 4 (Simulation time: 00 hr 00 min 57 sec)
Heartbeat CPU 0 instructions: 20000000 cycles: 5000061 heartbeat IPC: 4 cumulative IPC: 4 (Simulation time: 00 hr 02 min 29 sec)
Heartbeat CPU 0 instructions: 30000000 cycles: 7500061 heartbeat IPC: 4 cumulative IPC: 4 (Simulation time: 00 hr 04 min 29 sec)
Heartbeat CPU 0 instructions: 40000000 cycles: 10000061 heartbeat IPC: 4 cumulative IPC: 4 (Simulation time: 00 hr 07 min 11 sec)
Heartbeat CPU 0 instructions: 50000000 cycles: 12500061 heartbeat IPC: 4 cumulative IPC: 4 (Simulation time: 00 hr 11 min 07 sec)
Warmup finished CPU 0 instructions: 50000000 cycles: 12500062 cumulative IPC: 4 (Simulation time: 00 hr 11 min 07 sec)
Warmup complete CPU 0 instructions: 50000000 cycles: 12500062 cumulative IPC: 4 (Simulation time: 00 hr 11 min 07 sec)
Heartbeat CPU 0 instructions: 60000004 cycles: 15503677 heartbeat IPC: 3.329 cumulative IPC: 3.329 (Simulation time: 00 hr 16 min 22 sec)
Heartbeat CPU 0 instructions: 70000003 cycles: 18382317 heartbeat IPC: 3.474 cumulative IPC: 3.4 (Simulation time: 00 hr 21 min 20 sec)
Heartbeat CPU 0 instructions: 80000002 cycles: 21404747 heartbeat IPC: 3.309 cumulative IPC: 3.369 (Simulation time: 00 hr 26 min 21 sec)
Heartbeat CPU 0 instructions: 90000000 cycles: 24127135 heartbeat IPC: 3.673 cumulative IPC: 3.44 (Simulation time: 00 hr 31 min 09 sec)
Heartbeat CPU 0 instructions: 100000003 cycles: 26893697 heartbeat IPC: 3.615 cumulative IPC: 3.474 (Simulation time: 00 hr 36 min 02 sec)
Heartbeat CPU 0 instructions: 110000001 cycles: 29799971 heartbeat IPC: 3.441 cumulative IPC: 3.468 (Simulation time: 00 hr 40 min 54 sec)
Heartbeat CPU 0 instructions: 120000001 cycles: 32524189 heartbeat IPC: 3.671 cumulative IPC: 3.496 (Simulation time: 00 hr 45 min 40 sec)
Heartbeat CPU 0 instructions: 130000003 cycles: 35426960 heartbeat IPC: 3.445 cumulative IPC: 3.489 (Simulation time: 00 hr 50 min 34 sec)
Heartbeat CPU 0 instructions: 140000002 cycles: 38265022 heartbeat IPC: 3.524 cumulative IPC: 3.493 (Simulation time: 00 hr 55 min 25 sec)
Heartbeat CPU 0 instructions: 150000001 cycles: 41038933 heartbeat IPC: 3.605 cumulative IPC: 3.504 (Simulation time: 01 hr 00 min 15 sec)
Heartbeat CPU 0 instructions: 160000000 cycles: 43953820 heartbeat IPC: 3.431 cumulative IPC: 3.497 (Simulation time: 01 hr 05 min 08 sec)
Heartbeat CPU 0 instructions: 170000001 cycles: 46884845 heartbeat IPC: 3.412 cumulative IPC: 3.49 (Simulation time: 01 hr 10 min 06 sec)
Heartbeat CPU 0 instructions: 180000000 cycles: 49682531 heartbeat IPC: 3.574 cumulative IPC: 3.496 (Simulation time: 01 hr 15 min 00 sec)
Heartbeat CPU 0 instructions: 190000002 cycles: 52390539 heartbeat IPC: 3.693 cumulative IPC: 3.51 (Simulation time: 01 hr 19 min 53 sec)
Heartbeat CPU 0 instructions: 200000002 cycles: 55219937 heartbeat IPC: 3.534 cumulative IPC: 3.511 (Simulation time: 01 hr 24 min 44 sec)
Heartbeat CPU 0 instructions: 210000000 cycles: 58119126 heartbeat IPC: 3.449 cumulative IPC: 3.507 (Simulation time: 01 hr 29 min 38 sec)
Heartbeat CPU 0 instructions: 220000001 cycles: 60883566 heartbeat IPC: 3.617 cumulative IPC: 3.514 (Simulation time: 01 hr 34 min 26 sec)
Heartbeat CPU 0 instructions: 230000002 cycles: 63776820 heartbeat IPC: 3.456 cumulative IPC: 3.51 (Simulation time: 01 hr 39 min 24 sec)
Heartbeat CPU 0 instructions: 240000004 cycles: 66737011 heartbeat IPC: 3.378 cumulative IPC: 3.503 (Simulation time: 01 hr 44 min 20 sec)
Heartbeat CPU 0 instructions: 250000003 cycles: 69643379 heartbeat IPC: 3.441 cumulative IPC: 3.5 (Simulation time: 01 hr 49 min 14 sec)
Heartbeat CPU 0 instructions: 260000001 cycles: 72434967 heartbeat IPC: 3.582 cumulative IPC: 3.504 (Simulation time: 01 hr 54 min 07 sec)
Heartbeat CPU 0 instructions: 270000002 cycles: 77840694 heartbeat IPC: 1.85 cumulative IPC: 3.367 (Simulation time: 02 hr 00 min 42 sec)
Heartbeat CPU 0 instructions: 280000000 cycles: 86032025 heartbeat IPC: 1.221 cumulative IPC: 3.128 (Simulation time: 02 hr 09 min 29 sec)
Heartbeat CPU 0 instructions: 290000000 cycles: 93296903 heartbeat IPC: 1.376 cumulative IPC: 2.97 (Simulation time: 02 hr 17 min 35 sec)
Heartbeat CPU 0 instructions: 300000003 cycles: 98507923 heartbeat IPC: 1.919 cumulative IPC: 2.907 (Simulation time: 02 hr 24 min 31 sec)
Heartbeat CPU 0 instructions: 310000001 cycles: 106748393 heartbeat IPC: 1.214 cumulative IPC: 2.759 (Simulation time: 02 hr 33 min 41 sec)
Heartbeat CPU 0 instructions: 320000004 cycles: 110511047 heartbeat IPC: 2.658 cumulative IPC: 2.755 (Simulation time: 02 hr 39 min 27 sec)
Heartbeat CPU 0 instructions: 330000000 cycles: 113655210 heartbeat IPC: 3.18 cumulative IPC: 2.768 (Simulation time: 02 hr 44 min 36 sec)
Heartbeat CPU 0 instructions: 340000001 cycles: 116548755 heartbeat IPC: 3.456 cumulative IPC: 2.787 (Simulation time: 02 hr 49 min 35 sec)
Heartbeat CPU 0 instructions: 350000000 cycles: 119627098 heartbeat IPC: 3.249 cumulative IPC: 2.8 (Simulation time: 02 hr 54 min 45 sec)
Heartbeat CPU 0 instructions: 360000004 cycles: 122552108 heartbeat IPC: 3.419 cumulative IPC: 2.817 (Simulation time: 02 hr 59 min 43 sec)
Heartbeat CPU 0 instructions: 370000001 cycles: 125484534 heartbeat IPC: 3.41 cumulative IPC: 2.832 (Simulation time: 03 hr 04 min 44 sec)
Heartbeat CPU 0 instructions: 380000004 cycles: 128467592 heartbeat IPC: 3.352 cumulative IPC: 2.846 (Simulation time: 03 hr 09 min 45 sec)
Heartbeat CPU 0 instructions: 390000002 cycles: 131570039 heartbeat IPC: 3.223 cumulative IPC: 2.855 (Simulation time: 03 hr 14 min 57 sec)
Heartbeat CPU 0 instructions: 400000000 cycles: 134758206 heartbeat IPC: 3.137 cumulative IPC: 2.863 (Simulation time: 03 hr 20 min 06 sec)
Heartbeat CPU 0 instructions: 410000000 cycles: 140123378 heartbeat IPC: 1.864 cumulative IPC: 2.821 (Simulation time: 03 hr 26 min 49 sec)
Heartbeat CPU 0 instructions: 420000003 cycles: 148007508 heartbeat IPC: 1.268 cumulative IPC: 2.73 (Simulation time: 03 hr 35 min 23 sec)
Heartbeat CPU 0 instructions: 430000000 cycles: 152955198 heartbeat IPC: 2.021 cumulative IPC: 2.705 (Simulation time: 03 hr 42 min 11 sec)
Heartbeat CPU 0 instructions: 440000004 cycles: 157617094 heartbeat IPC: 2.145 cumulative IPC: 2.687 (Simulation time: 03 hr 48 min 35 sec)
Heartbeat CPU 0 instructions: 450000001 cycles: 162174455 heartbeat IPC: 2.194 cumulative IPC: 2.672 (Simulation time: 03 hr 55 min 02 sec)
Heartbeat CPU 0 instructions: 460000002 cycles: 169661650 heartbeat IPC: 1.336 cumulative IPC: 2.609 (Simulation time: 04 hr 03 min 26 sec)
Heartbeat CPU 0 instructions: 470000003 cycles: 176412019 heartbeat IPC: 1.481 cumulative IPC: 2.562 (Simulation time: 04 hr 11 min 16 sec)
Heartbeat CPU 0 instructions: 480000000 cycles: 179753656 heartbeat IPC: 2.993 cumulative IPC: 2.571 (Simulation time: 04 hr 16 min 32 sec)
Heartbeat CPU 0 instructions: 490000001 cycles: 183280345 heartbeat IPC: 2.836 cumulative IPC: 2.576 (Simulation time: 04 hr 22 min 01 sec)
Heartbeat CPU 0 instructions: 500000002 cycles: 186684353 heartbeat IPC: 2.938 cumulative IPC: 2.583 (Simulation time: 04 hr 27 min 25 sec)
Heartbeat CPU 0 instructions: 510000000 cycles: 190121064 heartbeat IPC: 2.91 cumulative IPC: 2.59 (Simulation time: 04 hr 32 min 51 sec)
Heartbeat CPU 0 instructions: 520000000 cycles: 193601794 heartbeat IPC: 2.873 cumulative IPC: 2.595 (Simulation time: 04 hr 38 min 15 sec)
Heartbeat CPU 0 instructions: 530000001 cycles: 201508044 heartbeat IPC: 1.265 cumulative IPC: 2.54 (Simulation time: 04 hr 46 min 45 sec)
Heartbeat CPU 0 instructions: 540000000 cycles: 208995789 heartbeat IPC: 1.336 cumulative IPC: 2.494 (Simulation time: 04 hr 55 min 11 sec)
Heartbeat CPU 0 instructions: 550000004 cycles: 217901133 heartbeat IPC: 1.123 cumulative IPC: 2.434 (Simulation time: 05 hr 04 min 31 sec)
Heartbeat CPU 0 instructions: 560000004 cycles: 221339742 heartbeat IPC: 2.908 cumulative IPC: 2.442 (Simulation time: 05 hr 09 min 48 sec)
Heartbeat CPU 0 instructions: 570000002 cycles: 224156385 heartbeat IPC: 3.55 cumulative IPC: 2.457 (Simulation time: 05 hr 14 min 42 sec)
Heartbeat CPU 0 instructions: 580000000 cycles: 227077385 heartbeat IPC: 3.423 cumulative IPC: 2.47 (Simulation time: 05 hr 19 min 38 sec)
Heartbeat CPU 0 instructions: 590000001 cycles: 230000901 heartbeat IPC: 3.421 cumulative IPC: 2.483 (Simulation time: 05 hr 24 min 51 sec)
Heartbeat CPU 0 instructions: 600000003 cycles: 232695257 heartbeat IPC: 3.711 cumulative IPC: 2.498 (Simulation time: 05 hr 29 min 46 sec)
Heartbeat CPU 0 instructions: 610000001 cycles: 235563031 heartbeat IPC: 3.487 cumulative IPC: 2.511 (Simulation time: 05 hr 34 min 53 sec)
Heartbeat CPU 0 instructions: 620000004 cycles: 238516896 heartbeat IPC: 3.385 cumulative IPC: 2.522 (Simulation time: 05 hr 40 min 07 sec)
Heartbeat CPU 0 instructions: 630000002 cycles: 241323661 heartbeat IPC: 3.563 cumulative IPC: 2.535 (Simulation time: 05 hr 45 min 13 sec)
Heartbeat CPU 0 instructions: 640000004 cycles: 244365191 heartbeat IPC: 3.288 cumulative IPC: 2.545 (Simulation time: 05 hr 50 min 33 sec)
Heartbeat CPU 0 instructions: 650000001 cycles: 247072722 heartbeat IPC: 3.693 cumulative IPC: 2.558 (Simulation time: 05 hr 55 min 39 sec)
Simulation finished CPU 0 instructions: 600000001 cycles: 234572661 cumulative IPC: 2.558 (Simulation time: 05 hr 55 min 39 sec)
Simulation complete CPU 0 instructions: 600000001 cycles: 234572661 cumulative IPC: 2.558 (Simulation time: 05 hr 55 min 39 sec)

ChampSim completed all CPUs

=== Simulation ===
CPU 0 runs traces/400.perlbench-50B.champsimtrace.xz
Region of Interest Statistics

CPU 0 cumulative IPC: 2.558 instructions: 600000001 cycles: 234572661
CPU 0 Branch Prediction Accuracy: 99.01% MPKI: 2.04 Average ROB Occupancy at Mispredict: 94.13
Branch type MPKI
BRANCH_DIRECT_JUMP: 0.0176
BRANCH_INDIRECT: 0.38
BRANCH_CONDITIONAL: 1.19
BRANCH_DIRECT_CALL: 0.0067
BRANCH_INDIRECT_CALL: 0.431
BRANCH_RETURN: 0.0161

LLC TOTAL        ACCESS:    1364380 HIT:     951216 MISS:     413164
LLC LOAD         ACCESS:     583438 HIT:     401133 MISS:     182305
LLC RFO          ACCESS:      47310 HIT:      31319 MISS:      15991
LLC PREFETCH     ACCESS:     583438 HIT:     380794 MISS:     202644
LLC WRITE        ACCESS:     128132 HIT:     126824 MISS:       1308
LLC TRANSLATION  ACCESS:      22062 HIT:      11146 MISS:      10916
LLC PREFETCH REQUESTED:     583438 ISSUED:     583438 USEFUL:      62802 USELESS:      80784
LLC AVERAGE MISS LATENCY: 585.9 cycles
cpu0_DTLB TOTAL        ACCESS:  133236817 HIT:  131881861 MISS:    1354956
cpu0_DTLB LOAD         ACCESS:  133236817 HIT:  131881861 MISS:    1354956
cpu0_DTLB RFO          ACCESS:          0 HIT:          0 MISS:          0
cpu0_DTLB PREFETCH     ACCESS:          0 HIT:          0 MISS:          0
cpu0_DTLB WRITE        ACCESS:          0 HIT:          0 MISS:          0
cpu0_DTLB TRANSLATION  ACCESS:          0 HIT:          0 MISS:          0
cpu0_DTLB PREFETCH REQUESTED:          0 ISSUED:          0 USEFUL:          0 USELESS:          0
cpu0_DTLB AVERAGE MISS LATENCY: 11.51 cycles
cpu0_ITLB TOTAL        ACCESS:    8989314 HIT:    8779920 MISS:     209394
cpu0_ITLB LOAD         ACCESS:    8989314 HIT:    8779920 MISS:     209394
cpu0_ITLB RFO          ACCESS:          0 HIT:          0 MISS:          0
cpu0_ITLB PREFETCH     ACCESS:          0 HIT:          0 MISS:          0
cpu0_ITLB WRITE        ACCESS:          0 HIT:          0 MISS:          0
cpu0_ITLB TRANSLATION  ACCESS:          0 HIT:          0 MISS:          0
cpu0_ITLB PREFETCH REQUESTED:          0 ISSUED:          0 USEFUL:          0 USELESS:          0
cpu0_ITLB AVERAGE MISS LATENCY: 2.778 cycles
cpu0_L1D TOTAL        ACCESS:  178283217 HIT:  174505689 MISS:    3777528
cpu0_L1D LOAD         ACCESS:   92763782 HIT:   89666962 MISS:    3096820
cpu0_L1D RFO          ACCESS:          0 HIT:          0 MISS:          0
cpu0_L1D PREFETCH     ACCESS:          0 HIT:          0 MISS:          0
cpu0_L1D WRITE        ACCESS:   85490901 HIT:   84837304 MISS:     653597
cpu0_L1D TRANSLATION  ACCESS:      28534 HIT:       1423 MISS:      27111
cpu0_L1D PREFETCH REQUESTED:          0 ISSUED:          0 USEFUL:          0 USELESS:          0
cpu0_L1D AVERAGE MISS LATENCY: 40.66 cycles
cpu0_L1I TOTAL        ACCESS:   10509585 HIT:    8611712 MISS:    1897873
cpu0_L1I LOAD         ACCESS:   10509585 HIT:    8611712 MISS:    1897873
cpu0_L1I RFO          ACCESS:          0 HIT:          0 MISS:          0
cpu0_L1I PREFETCH     ACCESS:          0 HIT:          0 MISS:          0
cpu0_L1I WRITE        ACCESS:          0 HIT:          0 MISS:          0
cpu0_L1I TRANSLATION  ACCESS:          0 HIT:          0 MISS:          0
cpu0_L1I PREFETCH REQUESTED:          0 ISSUED:          0 USEFUL:          0 USELESS:          0
cpu0_L1I AVERAGE MISS LATENCY: 9.45 cycles
cpu0_L2C TOTAL        ACCESS:    3840159 HIT:    3184411 MISS:     655748
cpu0_L2C LOAD         ACCESS:    3103746 HIT:    2520308 MISS:     583438
cpu0_L2C RFO          ACCESS:     194865 HIT:     147554 MISS:      47311
cpu0_L2C PREFETCH     ACCESS:          0 HIT:          0 MISS:          0
cpu0_L2C WRITE        ACCESS:     514514 HIT:     511577 MISS:       2937
cpu0_L2C TRANSLATION  ACCESS:      27034 HIT:       4972 MISS:      22062
cpu0_L2C PREFETCH REQUESTED:          0 ISSUED:          0 USEFUL:          0 USELESS:          0
cpu0_L2C AVERAGE MISS LATENCY: 230.3 cycles
cpu0_STLB TOTAL        ACCESS:    1010003 HIT:     983310 MISS:      26693
cpu0_STLB LOAD         ACCESS:    1010003 HIT:     983310 MISS:      26693
cpu0_STLB RFO          ACCESS:          0 HIT:          0 MISS:          0
cpu0_STLB PREFETCH     ACCESS:          0 HIT:          0 MISS:          0
cpu0_STLB WRITE        ACCESS:          0 HIT:          0 MISS:          0
cpu0_STLB TRANSLATION  ACCESS:          0 HIT:          0 MISS:          0
cpu0_STLB PREFETCH REQUESTED:          0 ISSUED:          0 USEFUL:          0 USELESS:          0
cpu0_STLB AVERAGE MISS LATENCY: 378.5 cycles

DRAM Statistics

Channel 0 RQ ROW_BUFFER_HIT:      77293
  ROW_BUFFER_MISS:     262410
 AVG DBUS CONGESTED CYCLE: 3.88
WQ ROW_BUFFER_HIT: Channel 0 
  ROW_BUFFER_MISS:       4160
  FULL:      28462
