WARNING: physical memory size is smaller than virtual memory size.

*** ChampSim Multicore Out-of-Order Simulator ***
Warmup Instructions: 50000000
Simulation Instructions: 600000000
Number of CPUs: 1
Page size: 4096

CPU 0 Tage branch predictor
Off-chip DRAM Size: 4 GiB Channels: 1 Width: 64-bit Data Race: 3200 MT/s
Heartbeat CPU 0 instructions: 10000000 cycles: 2500061 heartbeat IPC: 4 cumulative IPC: 4 (Simulation time: 00 hr 03 min 51 sec)
Heartbeat CPU 0 instructions: 20000000 cycles: 5000061 heartbeat IPC: 4 cumulative IPC: 4 (Simulation time: 00 hr 07 min 41 sec)
Heartbeat CPU 0 instructions: 30000000 cycles: 7500061 heartbeat IPC: 4 cumulative IPC: 4 (Simulation time: 00 hr 11 min 17 sec)
Heartbeat CPU 0 instructions: 40000000 cycles: 10000061 heartbeat IPC: 4 cumulative IPC: 4 (Simulation time: 00 hr 14 min 54 sec)
Heartbeat CPU 0 instructions: 50000000 cycles: 12500061 heartbeat IPC: 4 cumulative IPC: 4 (Simulation time: 00 hr 18 min 21 sec)
Warmup finished CPU 0 instructions: 50000000 cycles: 12500062 cumulative IPC: 4 (Simulation time: 00 hr 18 min 21 sec)
Warmup complete CPU 0 instructions: 50000000 cycles: 12500062 cumulative IPC: 4 (Simulation time: 00 hr 18 min 21 sec)
Heartbeat CPU 0 instructions: 60000004 cycles: 15504489 heartbeat IPC: 3.328 cumulative IPC: 3.328 (Simulation time: 00 hr 22 min 26 sec)
Heartbeat CPU 0 instructions: 70000003 cycles: 18370762 heartbeat IPC: 3.489 cumulative IPC: 3.407 (Simulation time: 00 hr 26 min 17 sec)
Heartbeat CPU 0 instructions: 80000002 cycles: 21382300 heartbeat IPC: 3.321 cumulative IPC: 3.378 (Simulation time: 00 hr 30 min 08 sec)
Heartbeat CPU 0 instructions: 90000000 cycles: 24100329 heartbeat IPC: 3.679 cumulative IPC: 3.448 (Simulation time: 00 hr 33 min 46 sec)
Heartbeat CPU 0 instructions: 100000003 cycles: 26857493 heartbeat IPC: 3.627 cumulative IPC: 3.483 (Simulation time: 00 hr 37 min 28 sec)
Heartbeat CPU 0 instructions: 110000001 cycles: 29755202 heartbeat IPC: 3.451 cumulative IPC: 3.477 (Simulation time: 00 hr 41 min 10 sec)
Heartbeat CPU 0 instructions: 120000001 cycles: 32471687 heartbeat IPC: 3.681 cumulative IPC: 3.505 (Simulation time: 00 hr 44 min 48 sec)
Heartbeat CPU 0 instructions: 130000003 cycles: 35371153 heartbeat IPC: 3.449 cumulative IPC: 3.498 (Simulation time: 00 hr 48 min 33 sec)
Heartbeat CPU 0 instructions: 140000002 cycles: 38204957 heartbeat IPC: 3.529 cumulative IPC: 3.501 (Simulation time: 00 hr 52 min 13 sec)
Heartbeat CPU 0 instructions: 150000001 cycles: 40975005 heartbeat IPC: 3.61 cumulative IPC: 3.512 (Simulation time: 00 hr 55 min 51 sec)
Heartbeat CPU 0 instructions: 160000000 cycles: 43892634 heartbeat IPC: 3.427 cumulative IPC: 3.504 (Simulation time: 00 hr 59 min 32 sec)
Heartbeat CPU 0 instructions: 170000001 cycles: 46821114 heartbeat IPC: 3.415 cumulative IPC: 3.496 (Simulation time: 01 hr 03 min 16 sec)
Heartbeat CPU 0 instructions: 180000000 cycles: 49612148 heartbeat IPC: 3.583 cumulative IPC: 3.503 (Simulation time: 01 hr 06 min 58 sec)
Heartbeat CPU 0 instructions: 190000002 cycles: 52319155 heartbeat IPC: 3.694 cumulative IPC: 3.516 (Simulation time: 01 hr 10 min 49 sec)
Heartbeat CPU 0 instructions: 200000002 cycles: 55139904 heartbeat IPC: 3.545 cumulative IPC: 3.518 (Simulation time: 01 hr 14 min 52 sec)
Heartbeat CPU 0 instructions: 210000000 cycles: 58032602 heartbeat IPC: 3.457 cumulative IPC: 3.514 (Simulation time: 01 hr 18 min 58 sec)
Heartbeat CPU 0 instructions: 220000001 cycles: 60784611 heartbeat IPC: 3.634 cumulative IPC: 3.521 (Simulation time: 01 hr 22 min 59 sec)
Heartbeat CPU 0 instructions: 230000002 cycles: 63673784 heartbeat IPC: 3.461 cumulative IPC: 3.517 (Simulation time: 01 hr 27 min 03 sec)
Heartbeat CPU 0 instructions: 240000004 cycles: 66624801 heartbeat IPC: 3.389 cumulative IPC: 3.51 (Simulation time: 01 hr 31 min 10 sec)
Heartbeat CPU 0 instructions: 250000003 cycles: 69515661 heartbeat IPC: 3.459 cumulative IPC: 3.508 (Simulation time: 01 hr 35 min 15 sec)
Heartbeat CPU 0 instructions: 260000001 cycles: 72300103 heartbeat IPC: 3.591 cumulative IPC: 3.512 (Simulation time: 01 hr 39 min 15 sec)
Heartbeat CPU 0 instructions: 270000002 cycles: 78059363 heartbeat IPC: 1.736 cumulative IPC: 3.356 (Simulation time: 01 hr 44 min 55 sec)
Heartbeat CPU 0 instructions: 280000000 cycles: 86489548 heartbeat IPC: 1.186 cumulative IPC: 3.109 (Simulation time: 01 hr 52 min 12 sec)
Heartbeat CPU 0 instructions: 290000000 cycles: 93393973 heartbeat IPC: 1.448 cumulative IPC: 2.967 (Simulation time: 01 hr 58 min 45 sec)
Heartbeat CPU 0 instructions: 300000003 cycles: 98406576 heartbeat IPC: 1.995 cumulative IPC: 2.91 (Simulation time: 02 hr 04 min 22 sec)
Heartbeat CPU 0 instructions: 310000001 cycles: 105790400 heartbeat IPC: 1.354 cumulative IPC: 2.787 (Simulation time: 02 hr 11 min 24 sec)
Heartbeat CPU 0 instructions: 320000004 cycles: 109448748 heartbeat IPC: 2.733 cumulative IPC: 2.785 (Simulation time: 02 hr 16 min 07 sec)
Heartbeat CPU 0 instructions: 330000000 cycles: 112580559 heartbeat IPC: 3.193 cumulative IPC: 2.798 (Simulation time: 02 hr 20 min 22 sec)
Heartbeat CPU 0 instructions: 340000001 cycles: 115643608 heartbeat IPC: 3.265 cumulative IPC: 2.812 (Simulation time: 02 hr 24 min 42 sec)
Heartbeat CPU 0 instructions: 350000000 cycles: 118885763 heartbeat IPC: 3.084 cumulative IPC: 2.82 (Simulation time: 02 hr 28 min 56 sec)
Heartbeat CPU 0 instructions: 360000004 cycles: 121932218 heartbeat IPC: 3.283 cumulative IPC: 2.833 (Simulation time: 02 hr 33 min 05 sec)
Heartbeat CPU 0 instructions: 370000001 cycles: 124957484 heartbeat IPC: 3.305 cumulative IPC: 2.846 (Simulation time: 02 hr 37 min 06 sec)
Heartbeat CPU 0 instructions: 380000004 cycles: 127996652 heartbeat IPC: 3.29 cumulative IPC: 2.857 (Simulation time: 02 hr 41 min 06 sec)
Heartbeat CPU 0 instructions: 390000002 cycles: 131134423 heartbeat IPC: 3.187 cumulative IPC: 2.866 (Simulation time: 02 hr 44 min 48 sec)
Heartbeat CPU 0 instructions: 400000000 cycles: 134327032 heartbeat IPC: 3.132 cumulative IPC: 2.873 (Simulation time: 02 hr 48 min 34 sec)
Heartbeat CPU 0 instructions: 410000000 cycles: 139499083 heartbeat IPC: 1.933 cumulative IPC: 2.835 (Simulation time: 02 hr 53 min 18 sec)
Heartbeat CPU 0 instructions: 420000003 cycles: 146470415 heartbeat IPC: 1.434 cumulative IPC: 2.762 (Simulation time: 02 hr 59 min 00 sec)
Heartbeat CPU 0 instructions: 430000000 cycles: 150977453 heartbeat IPC: 2.219 cumulative IPC: 2.744 (Simulation time: 03 hr 03 min 39 sec)
Heartbeat CPU 0 instructions: 440000004 cycles: 155279840 heartbeat IPC: 2.324 cumulative IPC: 2.731 (Simulation time: 03 hr 08 min 06 sec)
Heartbeat CPU 0 instructions: 450000001 cycles: 159637686 heartbeat IPC: 2.295 cumulative IPC: 2.719 (Simulation time: 03 hr 12 min 38 sec)
Heartbeat CPU 0 instructions: 460000002 cycles: 166018437 heartbeat IPC: 1.567 cumulative IPC: 2.671 (Simulation time: 03 hr 18 min 10 sec)
Heartbeat CPU 0 instructions: 470000003 cycles: 172481642 heartbeat IPC: 1.547 cumulative IPC: 2.625 (Simulation time: 03 hr 23 min 42 sec)
Heartbeat CPU 0 instructions: 480000000 cycles: 175749881 heartbeat IPC: 3.06 cumulative IPC: 2.634 (Simulation time: 03 hr 27 min 27 sec)
Heartbeat CPU 0 instructions: 490000001 cycles: 179181145 heartbeat IPC: 2.914 cumulative IPC: 2.64 (Simulation time: 03 hr 31 min 26 sec)
Heartbeat CPU 0 instructions: 500000002 cycles: 182486594 heartbeat IPC: 3.025 cumulative IPC: 2.647 (Simulation time: 03 hr 35 min 18 sec)
Heartbeat CPU 0 instructions: 510000000 cycles: 185794004 heartbeat IPC: 3.024 cumulative IPC: 2.654 (Simulation time: 03 hr 39 min 12 sec)
Heartbeat CPU 0 instructions: 520000000 cycles: 189126517 heartbeat IPC: 3.001 cumulative IPC: 2.661 (Simulation time: 03 hr 43 min 04 sec)
Heartbeat CPU 0 instructions: 530000001 cycles: 195831740 heartbeat IPC: 1.491 cumulative IPC: 2.618 (Simulation time: 03 hr 48 min 20 sec)
Heartbeat CPU 0 instructions: 540000000 cycles: 202046657 heartbeat IPC: 1.609 cumulative IPC: 2.585 (Simulation time: 03 hr 53 min 26 sec)
Heartbeat CPU 0 instructions: 550000004 cycles: 210150344 heartbeat IPC: 1.234 cumulative IPC: 2.53 (Simulation time: 03 hr 58 min 52 sec)
Heartbeat CPU 0 instructions: 560000004 cycles: 213546050 heartbeat IPC: 2.945 cumulative IPC: 2.537 (Simulation time: 04 hr 01 min 39 sec)
Heartbeat CPU 0 instructions: 570000002 cycles: 216360037 heartbeat IPC: 3.554 cumulative IPC: 2.551 (Simulation time: 04 hr 04 min 06 sec)
Heartbeat CPU 0 instructions: 580000000 cycles: 219265071 heartbeat IPC: 3.442 cumulative IPC: 2.563 (Simulation time: 04 hr 06 min 31 sec)
Heartbeat CPU 0 instructions: 590000001 cycles: 222182106 heartbeat IPC: 3.428 cumulative IPC: 2.575 (Simulation time: 04 hr 08 min 40 sec)
Heartbeat CPU 0 instructions: 600000003 cycles: 224869919 heartbeat IPC: 3.72 cumulative IPC: 2.59 (Simulation time: 04 hr 10 min 11 sec)
Heartbeat CPU 0 instructions: 610000001 cycles: 227725510 heartbeat IPC: 3.502 cumulative IPC: 2.602 (Simulation time: 04 hr 11 min 28 sec)
Heartbeat CPU 0 instructions: 620000004 cycles: 230672841 heartbeat IPC: 3.393 cumulative IPC: 2.613 (Simulation time: 04 hr 12 min 33 sec)
Heartbeat CPU 0 instructions: 630000002 cycles: 233478090 heartbeat IPC: 3.565 cumulative IPC: 2.625 (Simulation time: 04 hr 13 min 21 sec)
Heartbeat CPU 0 instructions: 640000004 cycles: 236514553 heartbeat IPC: 3.293 cumulative IPC: 2.634 (Simulation time: 04 hr 13 min 59 sec)
Heartbeat CPU 0 instructions: 650000001 cycles: 239220038 heartbeat IPC: 3.696 cumulative IPC: 2.646 (Simulation time: 04 hr 14 min 31 sec)
Simulation finished CPU 0 instructions: 600000001 cycles: 226719977 cumulative IPC: 2.646 (Simulation time: 04 hr 14 min 31 sec)
Simulation complete CPU 0 instructions: 600000001 cycles: 226719977 cumulative IPC: 2.646 (Simulation time: 04 hr 14 min 31 sec)

ChampSim completed all CPUs

=== Simulation ===
CPU 0 runs traces/400.perlbench-50B.champsimtrace.xz
Region of Interest Statistics

CPU 0 cumulative IPC: 2.646 instructions: 600000001 cycles: 226719977
CPU 0 Branch Prediction Accuracy: 99.01% MPKI: 2.04 Average ROB Occupancy at Mispredict: 94.05
Branch type MPKI
BRANCH_DIRECT_JUMP: 0.0176
BRANCH_INDIRECT: 0.38
BRANCH_CONDITIONAL: 1.19
BRANCH_DIRECT_CALL: 0.0067
BRANCH_INDIRECT_CALL: 0.431
BRANCH_RETURN: 0.0161

LLC TOTAL        ACCESS:     771285 HIT:     540822 MISS:     230463
LLC LOAD         ACCESS:     575650 HIT:     365244 MISS:     210406
LLC RFO          ACCESS:      46985 HIT:      37484 MISS:       9501
LLC PREFETCH     ACCESS:          0 HIT:          0 MISS:          0
LLC WRITE        ACCESS:     126506 HIT:     126320 MISS:        186
LLC TRANSLATION  ACCESS:      22144 HIT:      11774 MISS:      10370
LLC PREFETCH REQUESTED:          0 ISSUED:          0 USEFUL:          0 USELESS:          0
LLC AVERAGE MISS LATENCY: 522.7 cycles
cpu0_DTLB TOTAL        ACCESS:  133250555 HIT:  131896331 MISS:    1354224
cpu0_DTLB LOAD         ACCESS:  133250555 HIT:  131896331 MISS:    1354224
cpu0_DTLB RFO          ACCESS:          0 HIT:          0 MISS:          0
cpu0_DTLB PREFETCH     ACCESS:          0 HIT:          0 MISS:          0
cpu0_DTLB WRITE        ACCESS:          0 HIT:          0 MISS:          0
cpu0_DTLB TRANSLATION  ACCESS:          0 HIT:          0 MISS:          0
cpu0_DTLB PREFETCH REQUESTED:          0 ISSUED:          0 USEFUL:          0 USELESS:          0
cpu0_DTLB AVERAGE MISS LATENCY: 10.29 cycles
cpu0_ITLB TOTAL        ACCESS:    8998221 HIT:    8788807 MISS:     209414
cpu0_ITLB LOAD         ACCESS:    8998221 HIT:    8788807 MISS:     209414
cpu0_ITLB RFO          ACCESS:          0 HIT:          0 MISS:          0
cpu0_ITLB PREFETCH     ACCESS:          0 HIT:          0 MISS:          0
cpu0_ITLB WRITE        ACCESS:          0 HIT:          0 MISS:          0
cpu0_ITLB TRANSLATION  ACCESS:          0 HIT:          0 MISS:          0
cpu0_ITLB PREFETCH REQUESTED:          0 ISSUED:          0 USEFUL:          0 USELESS:          0
cpu0_ITLB AVERAGE MISS LATENCY: 2.474 cycles
cpu0_L1D TOTAL        ACCESS:  178287005 HIT:  174520130 MISS:    3766875
cpu0_L1D LOAD         ACCESS:   92767628 HIT:   89667518 MISS:    3100110
cpu0_L1D RFO          ACCESS:          0 HIT:          0 MISS:          0
cpu0_L1D PREFETCH     ACCESS:          0 HIT:          0 MISS:          0
cpu0_L1D WRITE        ACCESS:   85490851 HIT:   84851193 MISS:     639658
cpu0_L1D TRANSLATION  ACCESS:      28526 HIT:       1419 MISS:      27107
cpu0_L1D PREFETCH REQUESTED:          0 ISSUED:          0 USEFUL:          0 USELESS:          0
cpu0_L1D AVERAGE MISS LATENCY: 36.45 cycles
cpu0_L1I TOTAL        ACCESS:   10517679 HIT:    8618504 MISS:    1899175
cpu0_L1I LOAD         ACCESS:   10517679 HIT:    8618504 MISS:    1899175
cpu0_L1I RFO          ACCESS:          0 HIT:          0 MISS:          0
cpu0_L1I PREFETCH     ACCESS:          0 HIT:          0 MISS:          0
cpu0_L1I WRITE        ACCESS:          0 HIT:          0 MISS:          0
cpu0_L1I TRANSLATION  ACCESS:          0 HIT:          0 MISS:          0
cpu0_L1I PREFETCH REQUESTED:          0 ISSUED:          0 USEFUL:          0 USELESS:          0
cpu0_L1I AVERAGE MISS LATENCY: 8.72 cycles
cpu0_L2C TOTAL        ACCESS:    3840554 HIT:    3192645 MISS:     647909
cpu0_L2C LOAD         ACCESS:    3103828 HIT:    2528178 MISS:     575650
cpu0_L2C RFO          ACCESS:     194884 HIT:     147899 MISS:      46985
cpu0_L2C PREFETCH     ACCESS:          0 HIT:          0 MISS:          0
cpu0_L2C WRITE        ACCESS:     514808 HIT:     511678 MISS:       3130
cpu0_L2C TRANSLATION  ACCESS:      27034 HIT:       4890 MISS:      22144
cpu0_L2C PREFETCH REQUESTED:          0 ISSUED:          0 USEFUL:          0 USELESS:          0
cpu0_L2C AVERAGE MISS LATENCY: 206.2 cycles
cpu0_STLB TOTAL        ACCESS:    1009764 HIT:     983074 MISS:      26690
cpu0_STLB LOAD         ACCESS:    1009764 HIT:     983074 MISS:      26690
cpu0_STLB RFO          ACCESS:          0 HIT:          0 MISS:          0
cpu0_STLB PREFETCH     ACCESS:          0 HIT:          0 MISS:          0
cpu0_STLB WRITE        ACCESS:          0 HIT:          0 MISS:          0
cpu0_STLB TRANSLATION  ACCESS:          0 HIT:          0 MISS:          0
cpu0_STLB PREFETCH REQUESTED:          0 ISSUED:          0 USEFUL:          0 USELESS:          0
cpu0_STLB AVERAGE MISS LATENCY: 310.9 cycles

DRAM Statistics

Channel 0 RQ ROW_BUFFER_HIT:      75281
  ROW_BUFFER_MISS:     154996
 AVG DBUS CONGESTED CYCLE: 3.742
WQ ROW_BUFFER_HIT: Channel 0 
  ROW_BUFFER_MISS:        229
  FULL:        182
