WARNING: physical memory size is smaller than virtual memory size.

*** ChampSim Multicore Out-of-Order Simulator ***
Warmup Instructions: 50000000
Simulation Instructions: 600000000
Number of CPUs: 1
Page size: 4096

CPU 0 Tage branch predictor
Off-chip DRAM Size: 4 GiB Channels: 1 Width: 64-bit Data Race: 3200 MT/s
Heartbeat CPU 0 instructions: 10000000 cycles: 2500061 heartbeat IPC: 4 cumulative IPC: 4 (Simulation time: 00 hr 00 min 50 sec)
Heartbeat CPU 0 instructions: 20000000 cycles: 5000061 heartbeat IPC: 4 cumulative IPC: 4 (Simulation time: 00 hr 01 min 46 sec)
Heartbeat CPU 0 instructions: 30000000 cycles: 7500061 heartbeat IPC: 4 cumulative IPC: 4 (Simulation time: 00 hr 02 min 42 sec)
Heartbeat CPU 0 instructions: 40000000 cycles: 10000061 heartbeat IPC: 4 cumulative IPC: 4 (Simulation time: 00 hr 03 min 33 sec)
Heartbeat CPU 0 instructions: 50000000 cycles: 12500061 heartbeat IPC: 4 cumulative IPC: 4 (Simulation time: 00 hr 04 min 24 sec)
Warmup finished CPU 0 instructions: 50000000 cycles: 12500062 cumulative IPC: 4 (Simulation time: 00 hr 04 min 24 sec)
Warmup complete CPU 0 instructions: 50000000 cycles: 12500062 cumulative IPC: 4 (Simulation time: 00 hr 04 min 24 sec)
Heartbeat CPU 0 instructions: 60000004 cycles: 15503677 heartbeat IPC: 3.329 cumulative IPC: 3.329 (Simulation time: 00 hr 05 min 24 sec)
Heartbeat CPU 0 instructions: 70000003 cycles: 18382317 heartbeat IPC: 3.474 cumulative IPC: 3.4 (Simulation time: 00 hr 06 min 24 sec)
Heartbeat CPU 0 instructions: 80000002 cycles: 21404747 heartbeat IPC: 3.309 cumulative IPC: 3.369 (Simulation time: 00 hr 07 min 25 sec)
Heartbeat CPU 0 instructions: 90000000 cycles: 24127135 heartbeat IPC: 3.673 cumulative IPC: 3.44 (Simulation time: 00 hr 08 min 24 sec)
Heartbeat CPU 0 instructions: 100000003 cycles: 26893697 heartbeat IPC: 3.615 cumulative IPC: 3.474 (Simulation time: 00 hr 09 min 24 sec)
Heartbeat CPU 0 instructions: 110000001 cycles: 29799971 heartbeat IPC: 3.441 cumulative IPC: 3.468 (Simulation time: 00 hr 10 min 24 sec)
Heartbeat CPU 0 instructions: 120000001 cycles: 32524189 heartbeat IPC: 3.671 cumulative IPC: 3.496 (Simulation time: 00 hr 11 min 24 sec)
Heartbeat CPU 0 instructions: 130000003 cycles: 35426960 heartbeat IPC: 3.445 cumulative IPC: 3.489 (Simulation time: 00 hr 12 min 26 sec)
Heartbeat CPU 0 instructions: 140000002 cycles: 38265022 heartbeat IPC: 3.524 cumulative IPC: 3.493 (Simulation time: 00 hr 13 min 26 sec)
Heartbeat CPU 0 instructions: 150000001 cycles: 41038933 heartbeat IPC: 3.605 cumulative IPC: 3.504 (Simulation time: 00 hr 14 min 25 sec)
Heartbeat CPU 0 instructions: 160000000 cycles: 43953820 heartbeat IPC: 3.431 cumulative IPC: 3.497 (Simulation time: 00 hr 15 min 24 sec)
Heartbeat CPU 0 instructions: 170000001 cycles: 46884845 heartbeat IPC: 3.412 cumulative IPC: 3.49 (Simulation time: 00 hr 16 min 28 sec)
Heartbeat CPU 0 instructions: 180000000 cycles: 49682531 heartbeat IPC: 3.574 cumulative IPC: 3.496 (Simulation time: 00 hr 17 min 29 sec)
Heartbeat CPU 0 instructions: 190000002 cycles: 52390539 heartbeat IPC: 3.693 cumulative IPC: 3.51 (Simulation time: 00 hr 18 min 29 sec)
Heartbeat CPU 0 instructions: 200000002 cycles: 55219937 heartbeat IPC: 3.534 cumulative IPC: 3.511 (Simulation time: 00 hr 19 min 30 sec)
Heartbeat CPU 0 instructions: 210000000 cycles: 58119126 heartbeat IPC: 3.449 cumulative IPC: 3.507 (Simulation time: 00 hr 20 min 30 sec)
Heartbeat CPU 0 instructions: 220000001 cycles: 60883566 heartbeat IPC: 3.617 cumulative IPC: 3.514 (Simulation time: 00 hr 21 min 36 sec)
Heartbeat CPU 0 instructions: 230000002 cycles: 63776820 heartbeat IPC: 3.456 cumulative IPC: 3.51 (Simulation time: 00 hr 22 min 41 sec)
Heartbeat CPU 0 instructions: 240000004 cycles: 66737011 heartbeat IPC: 3.378 cumulative IPC: 3.503 (Simulation time: 00 hr 23 min 46 sec)
Heartbeat CPU 0 instructions: 250000003 cycles: 69643379 heartbeat IPC: 3.441 cumulative IPC: 3.5 (Simulation time: 00 hr 24 min 54 sec)
Heartbeat CPU 0 instructions: 260000001 cycles: 72434967 heartbeat IPC: 3.582 cumulative IPC: 3.504 (Simulation time: 00 hr 26 min 00 sec)
Heartbeat CPU 0 instructions: 270000002 cycles: 77842948 heartbeat IPC: 1.849 cumulative IPC: 3.367 (Simulation time: 00 hr 27 min 25 sec)
Heartbeat CPU 0 instructions: 280000000 cycles: 85948472 heartbeat IPC: 1.234 cumulative IPC: 3.131 (Simulation time: 00 hr 29 min 21 sec)
Heartbeat CPU 0 instructions: 290000000 cycles: 92681467 heartbeat IPC: 1.485 cumulative IPC: 2.993 (Simulation time: 00 hr 31 min 00 sec)
Heartbeat CPU 0 instructions: 300000003 cycles: 97659938 heartbeat IPC: 2.009 cumulative IPC: 2.936 (Simulation time: 00 hr 32 min 27 sec)
Heartbeat CPU 0 instructions: 310000001 cycles: 105125069 heartbeat IPC: 1.34 cumulative IPC: 2.807 (Simulation time: 00 hr 34 min 11 sec)
Heartbeat CPU 0 instructions: 320000004 cycles: 108786222 heartbeat IPC: 2.731 cumulative IPC: 2.804 (Simulation time: 00 hr 35 min 28 sec)
Heartbeat CPU 0 instructions: 330000000 cycles: 111970900 heartbeat IPC: 3.14 cumulative IPC: 2.815 (Simulation time: 00 hr 36 min 36 sec)
Heartbeat CPU 0 instructions: 340000001 cycles: 115152206 heartbeat IPC: 3.143 cumulative IPC: 2.825 (Simulation time: 00 hr 37 min 46 sec)
Heartbeat CPU 0 instructions: 350000000 cycles: 118493975 heartbeat IPC: 2.992 cumulative IPC: 2.83 (Simulation time: 00 hr 38 min 57 sec)
Heartbeat CPU 0 instructions: 360000004 cycles: 121640730 heartbeat IPC: 3.178 cumulative IPC: 2.84 (Simulation time: 00 hr 40 min 05 sec)
Heartbeat CPU 0 instructions: 370000001 cycles: 124735871 heartbeat IPC: 3.231 cumulative IPC: 2.851 (Simulation time: 00 hr 41 min 11 sec)
Heartbeat CPU 0 instructions: 380000004 cycles: 127841941 heartbeat IPC: 3.22 cumulative IPC: 2.861 (Simulation time: 00 hr 42 min 18 sec)
Heartbeat CPU 0 instructions: 390000002 cycles: 131070418 heartbeat IPC: 3.097 cumulative IPC: 2.867 (Simulation time: 00 hr 43 min 27 sec)
Heartbeat CPU 0 instructions: 400000000 cycles: 134361551 heartbeat IPC: 3.038 cumulative IPC: 2.872 (Simulation time: 00 hr 44 min 39 sec)
Heartbeat CPU 0 instructions: 410000000 cycles: 139926827 heartbeat IPC: 1.797 cumulative IPC: 2.825 (Simulation time: 00 hr 46 min 06 sec)
Heartbeat CPU 0 instructions: 420000003 cycles: 147979220 heartbeat IPC: 1.242 cumulative IPC: 2.731 (Simulation time: 00 hr 47 min 51 sec)
Heartbeat CPU 0 instructions: 430000000 cycles: 153253988 heartbeat IPC: 1.896 cumulative IPC: 2.7 (Simulation time: 00 hr 49 min 16 sec)
Heartbeat CPU 0 instructions: 440000004 cycles: 157831655 heartbeat IPC: 2.185 cumulative IPC: 2.684 (Simulation time: 00 hr 50 min 36 sec)
Heartbeat CPU 0 instructions: 450000001 cycles: 162343903 heartbeat IPC: 2.216 cumulative IPC: 2.669 (Simulation time: 00 hr 51 min 55 sec)
Heartbeat CPU 0 instructions: 460000002 cycles: 169296557 heartbeat IPC: 1.438 cumulative IPC: 2.615 (Simulation time: 00 hr 53 min 30 sec)
Heartbeat CPU 0 instructions: 470000003 cycles: 176124051 heartbeat IPC: 1.465 cumulative IPC: 2.567 (Simulation time: 00 hr 55 min 09 sec)
Heartbeat CPU 0 instructions: 480000000 cycles: 179533349 heartbeat IPC: 2.933 cumulative IPC: 2.574 (Simulation time: 00 hr 56 min 22 sec)
Heartbeat CPU 0 instructions: 490000001 cycles: 183186725 heartbeat IPC: 2.737 cumulative IPC: 2.578 (Simulation time: 00 hr 57 min 34 sec)
Heartbeat CPU 0 instructions: 500000002 cycles: 186649690 heartbeat IPC: 2.888 cumulative IPC: 2.584 (Simulation time: 00 hr 58 min 44 sec)
Heartbeat CPU 0 instructions: 510000000 cycles: 190117211 heartbeat IPC: 2.884 cumulative IPC: 2.59 (Simulation time: 00 hr 59 min 54 sec)
Heartbeat CPU 0 instructions: 520000000 cycles: 193617038 heartbeat IPC: 2.857 cumulative IPC: 2.595 (Simulation time: 01 hr 01 min 04 sec)
Heartbeat CPU 0 instructions: 530000001 cycles: 201704206 heartbeat IPC: 1.237 cumulative IPC: 2.537 (Simulation time: 01 hr 02 min 55 sec)
Heartbeat CPU 0 instructions: 540000000 cycles: 209611278 heartbeat IPC: 1.265 cumulative IPC: 2.486 (Simulation time: 01 hr 04 min 43 sec)
Heartbeat CPU 0 instructions: 550000004 cycles: 218761369 heartbeat IPC: 1.093 cumulative IPC: 2.424 (Simulation time: 01 hr 06 min 43 sec)
Heartbeat CPU 0 instructions: 560000004 cycles: 222179364 heartbeat IPC: 2.926 cumulative IPC: 2.432 (Simulation time: 01 hr 07 min 54 sec)
Heartbeat CPU 0 instructions: 570000002 cycles: 225001758 heartbeat IPC: 3.543 cumulative IPC: 2.447 (Simulation time: 01 hr 09 min 00 sec)
Heartbeat CPU 0 instructions: 580000000 cycles: 227928856 heartbeat IPC: 3.416 cumulative IPC: 2.46 (Simulation time: 01 hr 10 min 10 sec)
Heartbeat CPU 0 instructions: 590000001 cycles: 230863299 heartbeat IPC: 3.408 cumulative IPC: 2.473 (Simulation time: 01 hr 11 min 18 sec)
Heartbeat CPU 0 instructions: 600000003 cycles: 233563062 heartbeat IPC: 3.704 cumulative IPC: 2.488 (Simulation time: 01 hr 12 min 25 sec)
Heartbeat CPU 0 instructions: 610000001 cycles: 236434559 heartbeat IPC: 3.483 cumulative IPC: 2.501 (Simulation time: 01 hr 13 min 41 sec)
Heartbeat CPU 0 instructions: 620000004 cycles: 239394811 heartbeat IPC: 3.378 cumulative IPC: 2.512 (Simulation time: 01 hr 14 min 49 sec)
Heartbeat CPU 0 instructions: 630000002 cycles: 242205290 heartbeat IPC: 3.558 cumulative IPC: 2.525 (Simulation time: 01 hr 15 min 59 sec)
Heartbeat CPU 0 instructions: 640000004 cycles: 245254600 heartbeat IPC: 3.279 cumulative IPC: 2.535 (Simulation time: 01 hr 17 min 05 sec)
Heartbeat CPU 0 instructions: 650000001 cycles: 247963592 heartbeat IPC: 3.691 cumulative IPC: 2.548 (Simulation time: 01 hr 18 min 16 sec)
Simulation finished CPU 0 instructions: 600000001 cycles: 235463531 cumulative IPC: 2.548 (Simulation time: 01 hr 18 min 16 sec)
Simulation complete CPU 0 instructions: 600000001 cycles: 235463531 cumulative IPC: 2.548 (Simulation time: 01 hr 18 min 16 sec)

ChampSim completed all CPUs

=== Simulation ===
CPU 0 runs traces/400.perlbench-50B.champsimtrace.xz
Region of Interest Statistics

CPU 0 cumulative IPC: 2.548 instructions: 600000001 cycles: 235463531
CPU 0 Branch Prediction Accuracy: 99.01% MPKI: 2.04 Average ROB Occupancy at Mispredict: 94.09
Branch type MPKI
BRANCH_DIRECT_JUMP: 0.0176
BRANCH_INDIRECT: 0.38
BRANCH_CONDITIONAL: 1.19
BRANCH_DIRECT_CALL: 0.0067
BRANCH_INDIRECT_CALL: 0.431
BRANCH_RETURN: 0.0161

LLC TOTAL        ACCESS:    1363269 HIT:     925449 MISS:     437820
LLC LOAD         ACCESS:     582968 HIT:     383475 MISS:     199493
LLC RFO          ACCESS:      47253 HIT:      30326 MISS:      16927
LLC PREFETCH     ACCESS:     582968 HIT:     372426 MISS:     210542
LLC WRITE        ACCESS:     127979 HIT:     127878 MISS:        101
LLC TRANSLATION  ACCESS:      22101 HIT:      11344 MISS:      10757
LLC PREFETCH REQUESTED:     582968 ISSUED:     582968 USEFUL:      80551 USELESS:      62836
LLC AVERAGE MISS LATENCY: 608.6 cycles
cpu0_DTLB TOTAL        ACCESS:  133243728 HIT:  131889382 MISS:    1354346
cpu0_DTLB LOAD         ACCESS:  133243728 HIT:  131889382 MISS:    1354346
cpu0_DTLB RFO          ACCESS:          0 HIT:          0 MISS:          0
cpu0_DTLB PREFETCH     ACCESS:          0 HIT:          0 MISS:          0
cpu0_DTLB WRITE        ACCESS:          0 HIT:          0 MISS:          0
cpu0_DTLB TRANSLATION  ACCESS:          0 HIT:          0 MISS:          0
cpu0_DTLB PREFETCH REQUESTED:          0 ISSUED:          0 USEFUL:          0 USELESS:          0
cpu0_DTLB AVERAGE MISS LATENCY: 11.4 cycles
cpu0_ITLB TOTAL        ACCESS:    8990673 HIT:    8781204 MISS:     209469
cpu0_ITLB LOAD         ACCESS:    8990673 HIT:    8781204 MISS:     209469
cpu0_ITLB RFO          ACCESS:          0 HIT:          0 MISS:          0
cpu0_ITLB PREFETCH     ACCESS:          0 HIT:          0 MISS:          0
cpu0_ITLB WRITE        ACCESS:          0 HIT:          0 MISS:          0
cpu0_ITLB TRANSLATION  ACCESS:          0 HIT:          0 MISS:          0
cpu0_ITLB PREFETCH REQUESTED:          0 ISSUED:          0 USEFUL:          0 USELESS:          0
cpu0_ITLB AVERAGE MISS LATENCY: 2.713 cycles
cpu0_L1D TOTAL        ACCESS:  178285723 HIT:  174500007 MISS:    3785716
cpu0_L1D LOAD         ACCESS:   92766663 HIT:   89663224 MISS:    3103439
cpu0_L1D RFO          ACCESS:          0 HIT:          0 MISS:          0
cpu0_L1D PREFETCH     ACCESS:          0 HIT:          0 MISS:          0
cpu0_L1D WRITE        ACCESS:   85490525 HIT:   84835357 MISS:     655168
cpu0_L1D TRANSLATION  ACCESS:      28535 HIT:       1426 MISS:      27109
cpu0_L1D PREFETCH REQUESTED:          0 ISSUED:          0 USEFUL:          0 USELESS:          0
cpu0_L1D AVERAGE MISS LATENCY: 44.75 cycles
cpu0_L1I TOTAL        ACCESS:   10510770 HIT:    8612498 MISS:    1898272
cpu0_L1I LOAD         ACCESS:   10510770 HIT:    8612498 MISS:    1898272
cpu0_L1I RFO          ACCESS:          0 HIT:          0 MISS:          0
cpu0_L1I PREFETCH     ACCESS:          0 HIT:          0 MISS:          0
cpu0_L1I WRITE        ACCESS:          0 HIT:          0 MISS:          0
cpu0_L1I TRANSLATION  ACCESS:          0 HIT:          0 MISS:          0
cpu0_L1I PREFETCH REQUESTED:          0 ISSUED:          0 USEFUL:          0 USELESS:          0
cpu0_L1I AVERAGE MISS LATENCY: 9.04 cycles
cpu0_L2C TOTAL        ACCESS:    3840159 HIT:    3184921 MISS:     655238
cpu0_L2C LOAD         ACCESS:    3103743 HIT:    2520773 MISS:     582970
cpu0_L2C RFO          ACCESS:     194867 HIT:     147613 MISS:      47254
cpu0_L2C PREFETCH     ACCESS:          0 HIT:          0 MISS:          0
cpu0_L2C WRITE        ACCESS:     514513 HIT:     511600 MISS:       2913
cpu0_L2C TRANSLATION  ACCESS:      27036 HIT:       4935 MISS:      22101
cpu0_L2C PREFETCH REQUESTED:          0 ISSUED:          0 USEFUL:          0 USELESS:          0
cpu0_L2C AVERAGE MISS LATENCY: 255.4 cycles
cpu0_STLB TOTAL        ACCESS:    1010032 HIT:     983340 MISS:      26692
cpu0_STLB LOAD         ACCESS:    1010032 HIT:     983340 MISS:      26692
cpu0_STLB RFO          ACCESS:          0 HIT:          0 MISS:          0
cpu0_STLB PREFETCH     ACCESS:          0 HIT:          0 MISS:          0
cpu0_STLB WRITE        ACCESS:          0 HIT:          0 MISS:          0
cpu0_STLB TRANSLATION  ACCESS:          0 HIT:          0 MISS:          0
cpu0_STLB PREFETCH REQUESTED:          0 ISSUED:          0 USEFUL:          0 USELESS:          0
cpu0_STLB AVERAGE MISS LATENCY: 372.6 cycles

DRAM Statistics

Channel 0 RQ ROW_BUFFER_HIT:      87696
  ROW_BUFFER_MISS:     272250
 AVG DBUS CONGESTED CYCLE: 3.886
WQ ROW_BUFFER_HIT: Channel 0 
  ROW_BUFFER_MISS:       3984
  FULL:      33966
