WARNING: physical memory size is smaller than virtual memory size.

*** ChampSim Multicore Out-of-Order Simulator ***
Warmup Instructions: 50000000
Simulation Instructions: 600000000
Number of CPUs: 1
Page size: 4096

Off-chip DRAM Size: 4 GiB Channels: 1 Width: 64-bit Data Race: 3200 MT/s
Heartbeat CPU 0 instructions: 10000001 cycles: 2500318 heartbeat IPC: 3.999 cumulative IPC: 3.999 (Simulation time: 00 hr 00 min 20 sec)
Heartbeat CPU 0 instructions: 20000002 cycles: 5037121 heartbeat IPC: 3.942 cumulative IPC: 3.971 (Simulation time: 00 hr 00 min 44 sec)
Heartbeat CPU 0 instructions: 30000002 cycles: 7537121 heartbeat IPC: 4 cumulative IPC: 3.98 (Simulation time: 00 hr 01 min 10 sec)
Heartbeat CPU 0 instructions: 40000002 cycles: 10037121 heartbeat IPC: 4 cumulative IPC: 3.985 (Simulation time: 00 hr 01 min 40 sec)
Heartbeat CPU 0 instructions: 50000002 cycles: 12537121 heartbeat IPC: 4 cumulative IPC: 3.988 (Simulation time: 00 hr 02 min 14 sec)
Warmup finished CPU 0 instructions: 50000002 cycles: 12537122 cumulative IPC: 3.988 (Simulation time: 00 hr 02 min 14 sec)
Warmup complete CPU 0 instructions: 50000002 cycles: 12537122 cumulative IPC: 3.988 (Simulation time: 00 hr 02 min 14 sec)
Heartbeat CPU 0 instructions: 60000000 cycles: 17144996 heartbeat IPC: 2.17 cumulative IPC: 2.17 (Simulation time: 00 hr 03 min 09 sec)
Heartbeat CPU 0 instructions: 70000004 cycles: 21422718 heartbeat IPC: 2.338 cumulative IPC: 2.251 (Simulation time: 00 hr 04 min 12 sec)
Heartbeat CPU 0 instructions: 80000001 cycles: 26011749 heartbeat IPC: 2.179 cumulative IPC: 2.226 (Simulation time: 00 hr 05 min 20 sec)
Heartbeat CPU 0 instructions: 90000001 cycles: 30130046 heartbeat IPC: 2.428 cumulative IPC: 2.274 (Simulation time: 00 hr 06 min 23 sec)
Heartbeat CPU 0 instructions: 100000000 cycles: 34174167 heartbeat IPC: 2.473 cumulative IPC: 2.311 (Simulation time: 00 hr 07 min 27 sec)
Heartbeat CPU 0 instructions: 110000000 cycles: 38402770 heartbeat IPC: 2.365 cumulative IPC: 2.32 (Simulation time: 00 hr 08 min 29 sec)
Heartbeat CPU 0 instructions: 120000001 cycles: 42409612 heartbeat IPC: 2.496 cumulative IPC: 2.343 (Simulation time: 00 hr 09 min 31 sec)
Heartbeat CPU 0 instructions: 130000001 cycles: 46142462 heartbeat IPC: 2.679 cumulative IPC: 2.381 (Simulation time: 00 hr 10 min 32 sec)
Heartbeat CPU 0 instructions: 140000001 cycles: 50318791 heartbeat IPC: 2.394 cumulative IPC: 2.382 (Simulation time: 00 hr 11 min 36 sec)
Heartbeat CPU 0 instructions: 150000001 cycles: 54516205 heartbeat IPC: 2.382 cumulative IPC: 2.382 (Simulation time: 00 hr 12 min 39 sec)
Heartbeat CPU 0 instructions: 160000004 cycles: 58941963 heartbeat IPC: 2.26 cumulative IPC: 2.37 (Simulation time: 00 hr 13 min 48 sec)
Heartbeat CPU 0 instructions: 170000000 cycles: 67991187 heartbeat IPC: 1.105 cumulative IPC: 2.164 (Simulation time: 00 hr 15 min 33 sec)
Heartbeat CPU 0 instructions: 180000004 cycles: 75659478 heartbeat IPC: 1.304 cumulative IPC: 2.059 (Simulation time: 00 hr 17 min 08 sec)
Heartbeat CPU 0 instructions: 190000001 cycles: 83588921 heartbeat IPC: 1.261 cumulative IPC: 1.97 (Simulation time: 00 hr 18 min 46 sec)
Heartbeat CPU 0 instructions: 200000004 cycles: 87307037 heartbeat IPC: 2.69 cumulative IPC: 2.006 (Simulation time: 00 hr 19 min 50 sec)
Heartbeat CPU 0 instructions: 210000001 cycles: 91173961 heartbeat IPC: 2.586 cumulative IPC: 2.035 (Simulation time: 00 hr 20 min 51 sec)
Heartbeat CPU 0 instructions: 220000000 cycles: 95106318 heartbeat IPC: 2.543 cumulative IPC: 2.059 (Simulation time: 00 hr 21 min 54 sec)
Heartbeat CPU 0 instructions: 230000002 cycles: 99718588 heartbeat IPC: 2.168 cumulative IPC: 2.065 (Simulation time: 00 hr 23 min 01 sec)
Heartbeat CPU 0 instructions: 240000000 cycles: 103892112 heartbeat IPC: 2.396 cumulative IPC: 2.08 (Simulation time: 00 hr 24 min 06 sec)
Heartbeat CPU 0 instructions: 250000000 cycles: 108190402 heartbeat IPC: 2.327 cumulative IPC: 2.091 (Simulation time: 00 hr 25 min 14 sec)
Heartbeat CPU 0 instructions: 260000000 cycles: 112344225 heartbeat IPC: 2.407 cumulative IPC: 2.104 (Simulation time: 00 hr 26 min 17 sec)
Heartbeat CPU 0 instructions: 270000002 cycles: 116177810 heartbeat IPC: 2.609 cumulative IPC: 2.123 (Simulation time: 00 hr 27 min 21 sec)
Heartbeat CPU 0 instructions: 280000002 cycles: 120325858 heartbeat IPC: 2.411 cumulative IPC: 2.134 (Simulation time: 00 hr 28 min 28 sec)
Heartbeat CPU 0 instructions: 290000001 cycles: 124220242 heartbeat IPC: 2.568 cumulative IPC: 2.149 (Simulation time: 00 hr 29 min 31 sec)
Heartbeat CPU 0 instructions: 300000003 cycles: 128033899 heartbeat IPC: 2.622 cumulative IPC: 2.165 (Simulation time: 00 hr 30 min 33 sec)
Heartbeat CPU 0 instructions: 310000001 cycles: 132149509 heartbeat IPC: 2.43 cumulative IPC: 2.174 (Simulation time: 00 hr 31 min 40 sec)
Heartbeat CPU 0 instructions: 320000003 cycles: 136230744 heartbeat IPC: 2.45 cumulative IPC: 2.183 (Simulation time: 00 hr 32 min 44 sec)
Heartbeat CPU 0 instructions: 330000003 cycles: 140631401 heartbeat IPC: 2.272 cumulative IPC: 2.186 (Simulation time: 00 hr 33 min 51 sec)
Heartbeat CPU 0 instructions: 340000000 cycles: 149864211 heartbeat IPC: 1.083 cumulative IPC: 2.112 (Simulation time: 00 hr 35 min 40 sec)
Heartbeat CPU 0 instructions: 350000000 cycles: 157857468 heartbeat IPC: 1.251 cumulative IPC: 2.064 (Simulation time: 00 hr 37 min 20 sec)
Heartbeat CPU 0 instructions: 360000004 cycles: 166053874 heartbeat IPC: 1.22 cumulative IPC: 2.019 (Simulation time: 00 hr 39 min 01 sec)
Heartbeat CPU 0 instructions: 370000000 cycles: 169442113 heartbeat IPC: 2.951 cumulative IPC: 2.039 (Simulation time: 00 hr 39 min 59 sec)
Heartbeat CPU 0 instructions: 380000001 cycles: 172816097 heartbeat IPC: 2.964 cumulative IPC: 2.059 (Simulation time: 00 hr 41 min 01 sec)
Heartbeat CPU 0 instructions: 390000004 cycles: 176529313 heartbeat IPC: 2.693 cumulative IPC: 2.073 (Simulation time: 00 hr 42 min 03 sec)
Heartbeat CPU 0 instructions: 400000004 cycles: 180321141 heartbeat IPC: 2.637 cumulative IPC: 2.086 (Simulation time: 00 hr 43 min 04 sec)
Heartbeat CPU 0 instructions: 410000001 cycles: 183938956 heartbeat IPC: 2.764 cumulative IPC: 2.1 (Simulation time: 00 hr 44 min 03 sec)
Heartbeat CPU 0 instructions: 420000003 cycles: 187934901 heartbeat IPC: 2.503 cumulative IPC: 2.109 (Simulation time: 00 hr 45 min 05 sec)
Heartbeat CPU 0 instructions: 430000001 cycles: 191572559 heartbeat IPC: 2.749 cumulative IPC: 2.122 (Simulation time: 00 hr 46 min 06 sec)
Heartbeat CPU 0 instructions: 440000004 cycles: 195631031 heartbeat IPC: 2.464 cumulative IPC: 2.13 (Simulation time: 00 hr 47 min 08 sec)
Heartbeat CPU 0 instructions: 450000002 cycles: 199342306 heartbeat IPC: 2.694 cumulative IPC: 2.141 (Simulation time: 00 hr 48 min 06 sec)
Heartbeat CPU 0 instructions: 460000000 cycles: 202987761 heartbeat IPC: 2.743 cumulative IPC: 2.153 (Simulation time: 00 hr 49 min 02 sec)
Heartbeat CPU 0 instructions: 470000000 cycles: 206435777 heartbeat IPC: 2.9 cumulative IPC: 2.166 (Simulation time: 00 hr 49 min 57 sec)
Heartbeat CPU 0 instructions: 480000003 cycles: 210251403 heartbeat IPC: 2.621 cumulative IPC: 2.175 (Simulation time: 00 hr 50 min 57 sec)
Heartbeat CPU 0 instructions: 490000000 cycles: 213872265 heartbeat IPC: 2.762 cumulative IPC: 2.185 (Simulation time: 00 hr 51 min 57 sec)
Heartbeat CPU 0 instructions: 500000000 cycles: 217561518 heartbeat IPC: 2.711 cumulative IPC: 2.195 (Simulation time: 00 hr 52 min 57 sec)
Heartbeat CPU 0 instructions: 510000003 cycles: 221223665 heartbeat IPC: 2.731 cumulative IPC: 2.204 (Simulation time: 00 hr 53 min 58 sec)
Heartbeat CPU 0 instructions: 520000001 cycles: 224615304 heartbeat IPC: 2.948 cumulative IPC: 2.216 (Simulation time: 00 hr 54 min 57 sec)
Heartbeat CPU 0 instructions: 530000002 cycles: 228295930 heartbeat IPC: 2.717 cumulative IPC: 2.225 (Simulation time: 00 hr 55 min 57 sec)
Heartbeat CPU 0 instructions: 540000000 cycles: 231819797 heartbeat IPC: 2.838 cumulative IPC: 2.235 (Simulation time: 00 hr 56 min 57 sec)
Heartbeat CPU 0 instructions: 550000001 cycles: 235509607 heartbeat IPC: 2.71 cumulative IPC: 2.242 (Simulation time: 00 hr 57 min 57 sec)
Heartbeat CPU 0 instructions: 560000000 cycles: 239497643 heartbeat IPC: 2.507 cumulative IPC: 2.247 (Simulation time: 00 hr 59 min 02 sec)
Heartbeat CPU 0 instructions: 570000004 cycles: 245728444 heartbeat IPC: 1.605 cumulative IPC: 2.23 (Simulation time: 01 hr 00 min 22 sec)
Heartbeat CPU 0 instructions: 580000003 cycles: 254902946 heartbeat IPC: 1.09 cumulative IPC: 2.187 (Simulation time: 01 hr 02 min 00 sec)
Heartbeat CPU 0 instructions: 590000002 cycles: 264841131 heartbeat IPC: 1.006 cumulative IPC: 2.14 (Simulation time: 01 hr 03 min 51 sec)
Heartbeat CPU 0 instructions: 600000000 cycles: 268528041 heartbeat IPC: 2.712 cumulative IPC: 2.149 (Simulation time: 01 hr 04 min 51 sec)
Heartbeat CPU 0 instructions: 610000000 cycles: 272337762 heartbeat IPC: 2.625 cumulative IPC: 2.155 (Simulation time: 01 hr 05 min 49 sec)
Heartbeat CPU 0 instructions: 620000001 cycles: 275747149 heartbeat IPC: 2.933 cumulative IPC: 2.166 (Simulation time: 01 hr 06 min 44 sec)
Heartbeat CPU 0 instructions: 630000002 cycles: 279982802 heartbeat IPC: 2.361 cumulative IPC: 2.169 (Simulation time: 01 hr 07 min 46 sec)
Heartbeat CPU 0 instructions: 640000001 cycles: 283863252 heartbeat IPC: 2.577 cumulative IPC: 2.175 (Simulation time: 01 hr 08 min 47 sec)
Heartbeat CPU 0 instructions: 650000000 cycles: 287600479 heartbeat IPC: 2.676 cumulative IPC: 2.181 (Simulation time: 01 hr 09 min 46 sec)
Simulation finished CPU 0 instructions: 600000001 cycles: 275063359 cumulative IPC: 2.181 (Simulation time: 01 hr 09 min 46 sec)
Simulation complete CPU 0 instructions: 600000001 cycles: 275063359 cumulative IPC: 2.181 (Simulation time: 01 hr 09 min 46 sec)

ChampSim completed all CPUs

=== Simulation ===
CPU 0 runs traces/400.perlbench-41B.champsimtrace.xz
Region of Interest Statistics

CPU 0 cumulative IPC: 2.181 instructions: 600000001 cycles: 275063359
CPU 0 Branch Prediction Accuracy: 96.56% MPKI: 7.112 Average ROB Occupancy at Mispredict: 47.21
Branch type MPKI
BRANCH_DIRECT_JUMP: 0.0123
BRANCH_INDIRECT: 0.323
BRANCH_CONDITIONAL: 6.56
BRANCH_DIRECT_CALL: 0.0043
BRANCH_INDIRECT_CALL: 0.2
BRANCH_RETURN: 0.00828

LLC TOTAL        ACCESS:     937750 HIT:     666683 MISS:     271067
LLC LOAD         ACCESS:     400709 HIT:     284867 MISS:     115842
LLC RFO          ACCESS:      32485 HIT:      18640 MISS:      13845
LLC PREFETCH     ACCESS:     400709 HIT:     281205 MISS:     119504
LLC WRITE        ACCESS:      84661 HIT:      74241 MISS:      10420
LLC TRANSLATION  ACCESS:      19186 HIT:       7730 MISS:      11456
LLC PREFETCH REQUESTED:     400709 ISSUED:     400709 USEFUL:      41071 USELESS:      52834
LLC AVERAGE MISS LATENCY: 540.4 cycles
cpu0_DTLB TOTAL        ACCESS:  141888519 HIT:  141201655 MISS:     686864
cpu0_DTLB LOAD         ACCESS:  141888519 HIT:  141201655 MISS:     686864
cpu0_DTLB RFO          ACCESS:          0 HIT:          0 MISS:          0
cpu0_DTLB PREFETCH     ACCESS:          0 HIT:          0 MISS:          0
cpu0_DTLB WRITE        ACCESS:          0 HIT:          0 MISS:          0
cpu0_DTLB TRANSLATION  ACCESS:          0 HIT:          0 MISS:          0
cpu0_DTLB PREFETCH REQUESTED:          0 ISSUED:          0 USEFUL:          0 USELESS:          0
cpu0_DTLB AVERAGE MISS LATENCY: 15.94 cycles
cpu0_ITLB TOTAL        ACCESS:    4859631 HIT:    4806492 MISS:      53139
cpu0_ITLB LOAD         ACCESS:    4859631 HIT:    4806492 MISS:      53139
cpu0_ITLB RFO          ACCESS:          0 HIT:          0 MISS:          0
cpu0_ITLB PREFETCH     ACCESS:          0 HIT:          0 MISS:          0
cpu0_ITLB WRITE        ACCESS:          0 HIT:          0 MISS:          0
cpu0_ITLB TRANSLATION  ACCESS:          0 HIT:          0 MISS:          0
cpu0_ITLB PREFETCH REQUESTED:          0 ISSUED:          0 USEFUL:          0 USELESS:          0
cpu0_ITLB AVERAGE MISS LATENCY: 7.281 cycles
cpu0_L1D TOTAL        ACCESS:  188558135 HIT:  186851146 MISS:    1706989
cpu0_L1D LOAD         ACCESS:  105191237 HIT:  103862716 MISS:    1328521
cpu0_L1D RFO          ACCESS:          0 HIT:          0 MISS:          0
cpu0_L1D PREFETCH     ACCESS:          0 HIT:          0 MISS:          0
cpu0_L1D WRITE        ACCESS:   83342437 HIT:   82987370 MISS:     355067
cpu0_L1D TRANSLATION  ACCESS:      24461 HIT:       1060 MISS:      23401
cpu0_L1D PREFETCH REQUESTED:          0 ISSUED:          0 USEFUL:          0 USELESS:          0
cpu0_L1D AVERAGE MISS LATENCY: 56.64 cycles
cpu0_L1I TOTAL        ACCESS:    5597181 HIT:    4853833 MISS:     743348
cpu0_L1I LOAD         ACCESS:    5597181 HIT:    4853833 MISS:     743348
cpu0_L1I RFO          ACCESS:          0 HIT:          0 MISS:          0
cpu0_L1I PREFETCH     ACCESS:          0 HIT:          0 MISS:          0
cpu0_L1I WRITE        ACCESS:          0 HIT:          0 MISS:          0
cpu0_L1I TRANSLATION  ACCESS:          0 HIT:          0 MISS:          0
cpu0_L1I PREFETCH REQUESTED:          0 ISSUED:          0 USEFUL:          0 USELESS:          0
cpu0_L1I AVERAGE MISS LATENCY: 12.25 cycles
cpu0_L2C TOTAL        ACCESS:    1665625 HIT:    1211477 MISS:     454148
cpu0_L2C LOAD         ACCESS:    1315993 HIT:     915284 MISS:     400709
cpu0_L2C RFO          ACCESS:      88329 HIT:      55844 MISS:      32485
cpu0_L2C PREFETCH     ACCESS:          0 HIT:          0 MISS:          0
cpu0_L2C WRITE        ACCESS:     237970 HIT:     236202 MISS:       1768
cpu0_L2C TRANSLATION  ACCESS:      23333 HIT:       4147 MISS:      19186
cpu0_L2C PREFETCH REQUESTED:          0 ISSUED:          0 USEFUL:          0 USELESS:          0
cpu0_L2C AVERAGE MISS LATENCY: 210.6 cycles
cpu0_STLB TOTAL        ACCESS:     507234 HIT:     484440 MISS:      22794
cpu0_STLB LOAD         ACCESS:     507234 HIT:     484440 MISS:      22794
cpu0_STLB RFO          ACCESS:          0 HIT:          0 MISS:          0
cpu0_STLB PREFETCH     ACCESS:          0 HIT:          0 MISS:          0
cpu0_STLB WRITE        ACCESS:          0 HIT:          0 MISS:          0
cpu0_STLB TRANSLATION  ACCESS:          0 HIT:          0 MISS:          0
cpu0_STLB PREFETCH REQUESTED:          0 ISSUED:          0 USEFUL:          0 USELESS:          0
cpu0_STLB AVERAGE MISS LATENCY: 361.6 cycles

DRAM Statistics

Channel 0 RQ ROW_BUFFER_HIT:      34111
  ROW_BUFFER_MISS:     190661
 AVG DBUS CONGESTED CYCLE: 3.874
WQ ROW_BUFFER_HIT: Channel 0 
  ROW_BUFFER_MISS:       7539
  FULL:      30260
