WARNING: physical memory size is smaller than virtual memory size.

*** ChampSim Multicore Out-of-Order Simulator ***
Warmup Instructions: 50000000
Simulation Instructions: 600000000
Number of CPUs: 1
Page size: 4096

CPU 0 Tage branch predictor
Off-chip DRAM Size: 4 GiB Channels: 1 Width: 64-bit Data Race: 3200 MT/s
Heartbeat CPU 0 instructions: 10000001 cycles: 2500318 heartbeat IPC: 3.999 cumulative IPC: 3.999 (Simulation time: 00 hr 00 min 44 sec)
Heartbeat CPU 0 instructions: 20000002 cycles: 5037133 heartbeat IPC: 3.942 cumulative IPC: 3.971 (Simulation time: 00 hr 01 min 38 sec)
Heartbeat CPU 0 instructions: 30000002 cycles: 7537133 heartbeat IPC: 4 cumulative IPC: 3.98 (Simulation time: 00 hr 02 min 31 sec)
Heartbeat CPU 0 instructions: 40000002 cycles: 10037133 heartbeat IPC: 4 cumulative IPC: 3.985 (Simulation time: 00 hr 03 min 29 sec)
Heartbeat CPU 0 instructions: 50000002 cycles: 12537133 heartbeat IPC: 4 cumulative IPC: 3.988 (Simulation time: 00 hr 04 min 23 sec)
Warmup finished CPU 0 instructions: 50000002 cycles: 12537134 cumulative IPC: 3.988 (Simulation time: 00 hr 04 min 23 sec)
Warmup complete CPU 0 instructions: 50000002 cycles: 12537134 cumulative IPC: 3.988 (Simulation time: 00 hr 04 min 23 sec)
Heartbeat CPU 0 instructions: 60000001 cycles: 15510024 heartbeat IPC: 3.364 cumulative IPC: 3.364 (Simulation time: 00 hr 05 min 29 sec)
Heartbeat CPU 0 instructions: 70000004 cycles: 18582953 heartbeat IPC: 3.254 cumulative IPC: 3.308 (Simulation time: 00 hr 06 min 35 sec)
Heartbeat CPU 0 instructions: 80000001 cycles: 21627276 heartbeat IPC: 3.285 cumulative IPC: 3.3 (Simulation time: 00 hr 07 min 41 sec)
Heartbeat CPU 0 instructions: 90000001 cycles: 24573471 heartbeat IPC: 3.394 cumulative IPC: 3.323 (Simulation time: 00 hr 08 min 45 sec)
Heartbeat CPU 0 instructions: 100000000 cycles: 27482340 heartbeat IPC: 3.438 cumulative IPC: 3.346 (Simulation time: 00 hr 09 min 50 sec)
Heartbeat CPU 0 instructions: 110000000 cycles: 30427639 heartbeat IPC: 3.395 cumulative IPC: 3.354 (Simulation time: 00 hr 10 min 54 sec)
Heartbeat CPU 0 instructions: 120000001 cycles: 33405584 heartbeat IPC: 3.358 cumulative IPC: 3.354 (Simulation time: 00 hr 12 min 00 sec)
Heartbeat CPU 0 instructions: 130000001 cycles: 36266399 heartbeat IPC: 3.496 cumulative IPC: 3.371 (Simulation time: 00 hr 13 min 09 sec)
Heartbeat CPU 0 instructions: 140000001 cycles: 39316218 heartbeat IPC: 3.279 cumulative IPC: 3.361 (Simulation time: 00 hr 14 min 16 sec)
Heartbeat CPU 0 instructions: 150000001 cycles: 42333043 heartbeat IPC: 3.315 cumulative IPC: 3.356 (Simulation time: 00 hr 15 min 22 sec)
Heartbeat CPU 0 instructions: 160000004 cycles: 45351888 heartbeat IPC: 3.313 cumulative IPC: 3.352 (Simulation time: 00 hr 16 min 27 sec)
Heartbeat CPU 0 instructions: 170000000 cycles: 51931349 heartbeat IPC: 1.52 cumulative IPC: 3.046 (Simulation time: 00 hr 18 min 10 sec)
Heartbeat CPU 0 instructions: 180000004 cycles: 57007850 heartbeat IPC: 1.97 cumulative IPC: 2.923 (Simulation time: 00 hr 19 min 36 sec)
Heartbeat CPU 0 instructions: 190000001 cycles: 62134917 heartbeat IPC: 1.95 cumulative IPC: 2.823 (Simulation time: 00 hr 21 min 05 sec)
Heartbeat CPU 0 instructions: 200000004 cycles: 64995939 heartbeat IPC: 3.495 cumulative IPC: 2.859 (Simulation time: 00 hr 22 min 09 sec)
Heartbeat CPU 0 instructions: 210000001 cycles: 67872702 heartbeat IPC: 3.476 cumulative IPC: 2.891 (Simulation time: 00 hr 23 min 18 sec)
Heartbeat CPU 0 instructions: 220000000 cycles: 70721549 heartbeat IPC: 3.51 cumulative IPC: 2.922 (Simulation time: 00 hr 24 min 22 sec)
Heartbeat CPU 0 instructions: 230000002 cycles: 73623910 heartbeat IPC: 3.445 cumulative IPC: 2.947 (Simulation time: 00 hr 25 min 27 sec)
Heartbeat CPU 0 instructions: 240000003 cycles: 76588480 heartbeat IPC: 3.373 cumulative IPC: 2.966 (Simulation time: 00 hr 26 min 35 sec)
Heartbeat CPU 0 instructions: 250000000 cycles: 79542444 heartbeat IPC: 3.385 cumulative IPC: 2.985 (Simulation time: 00 hr 27 min 40 sec)
Heartbeat CPU 0 instructions: 260000002 cycles: 82452615 heartbeat IPC: 3.436 cumulative IPC: 3.004 (Simulation time: 00 hr 28 min 45 sec)
Heartbeat CPU 0 instructions: 270000002 cycles: 85318650 heartbeat IPC: 3.489 cumulative IPC: 3.023 (Simulation time: 00 hr 29 min 53 sec)
Heartbeat CPU 0 instructions: 280000002 cycles: 88177443 heartbeat IPC: 3.498 cumulative IPC: 3.041 (Simulation time: 00 hr 30 min 58 sec)
Heartbeat CPU 0 instructions: 290000002 cycles: 91114456 heartbeat IPC: 3.405 cumulative IPC: 3.054 (Simulation time: 00 hr 32 min 04 sec)
Heartbeat CPU 0 instructions: 300000003 cycles: 93986604 heartbeat IPC: 3.482 cumulative IPC: 3.069 (Simulation time: 00 hr 33 min 13 sec)
Heartbeat CPU 0 instructions: 310000001 cycles: 96982770 heartbeat IPC: 3.338 cumulative IPC: 3.079 (Simulation time: 00 hr 34 min 19 sec)
Heartbeat CPU 0 instructions: 320000003 cycles: 99980070 heartbeat IPC: 3.336 cumulative IPC: 3.088 (Simulation time: 00 hr 35 min 28 sec)
Heartbeat CPU 0 instructions: 330000003 cycles: 102947826 heartbeat IPC: 3.37 cumulative IPC: 3.097 (Simulation time: 00 hr 36 min 35 sec)
Heartbeat CPU 0 instructions: 340000000 cycles: 109799341 heartbeat IPC: 1.46 cumulative IPC: 2.982 (Simulation time: 00 hr 38 min 14 sec)
Heartbeat CPU 0 instructions: 350000000 cycles: 115127633 heartbeat IPC: 1.877 cumulative IPC: 2.924 (Simulation time: 00 hr 39 min 48 sec)
Heartbeat CPU 0 instructions: 360000004 cycles: 120681491 heartbeat IPC: 1.801 cumulative IPC: 2.867 (Simulation time: 00 hr 41 min 17 sec)
Heartbeat CPU 0 instructions: 370000000 cycles: 123562607 heartbeat IPC: 3.471 cumulative IPC: 2.882 (Simulation time: 00 hr 42 min 21 sec)
Heartbeat CPU 0 instructions: 380000003 cycles: 126402543 heartbeat IPC: 3.521 cumulative IPC: 2.898 (Simulation time: 00 hr 43 min 25 sec)
Heartbeat CPU 0 instructions: 390000002 cycles: 129329063 heartbeat IPC: 3.417 cumulative IPC: 2.911 (Simulation time: 00 hr 44 min 31 sec)
Heartbeat CPU 0 instructions: 400000004 cycles: 132198216 heartbeat IPC: 3.485 cumulative IPC: 2.925 (Simulation time: 00 hr 45 min 39 sec)
Heartbeat CPU 0 instructions: 410000002 cycles: 135067700 heartbeat IPC: 3.485 cumulative IPC: 2.938 (Simulation time: 00 hr 46 min 43 sec)
Heartbeat CPU 0 instructions: 420000003 cycles: 138081386 heartbeat IPC: 3.318 cumulative IPC: 2.947 (Simulation time: 00 hr 47 min 48 sec)
Heartbeat CPU 0 instructions: 430000001 cycles: 141043991 heartbeat IPC: 3.375 cumulative IPC: 2.957 (Simulation time: 00 hr 48 min 53 sec)
Heartbeat CPU 0 instructions: 440000004 cycles: 144117854 heartbeat IPC: 3.253 cumulative IPC: 2.964 (Simulation time: 00 hr 49 min 59 sec)
Heartbeat CPU 0 instructions: 450000002 cycles: 146993497 heartbeat IPC: 3.477 cumulative IPC: 2.975 (Simulation time: 00 hr 51 min 03 sec)
Heartbeat CPU 0 instructions: 460000000 cycles: 149895331 heartbeat IPC: 3.446 cumulative IPC: 2.985 (Simulation time: 00 hr 52 min 08 sec)
Heartbeat CPU 0 instructions: 470000001 cycles: 152712787 heartbeat IPC: 3.549 cumulative IPC: 2.996 (Simulation time: 00 hr 53 min 12 sec)
Heartbeat CPU 0 instructions: 480000003 cycles: 155748609 heartbeat IPC: 3.294 cumulative IPC: 3.003 (Simulation time: 00 hr 54 min 16 sec)
Heartbeat CPU 0 instructions: 490000004 cycles: 158565835 heartbeat IPC: 3.55 cumulative IPC: 3.013 (Simulation time: 00 hr 55 min 19 sec)
Heartbeat CPU 0 instructions: 500000004 cycles: 161535313 heartbeat IPC: 3.368 cumulative IPC: 3.02 (Simulation time: 00 hr 56 min 24 sec)
Heartbeat CPU 0 instructions: 510000003 cycles: 164558875 heartbeat IPC: 3.307 cumulative IPC: 3.026 (Simulation time: 00 hr 57 min 33 sec)
Heartbeat CPU 0 instructions: 520000001 cycles: 167425851 heartbeat IPC: 3.488 cumulative IPC: 3.034 (Simulation time: 00 hr 58 min 39 sec)
Heartbeat CPU 0 instructions: 530000001 cycles: 170422768 heartbeat IPC: 3.337 cumulative IPC: 3.04 (Simulation time: 00 hr 59 min 44 sec)
Heartbeat CPU 0 instructions: 540000000 cycles: 173360645 heartbeat IPC: 3.404 cumulative IPC: 3.047 (Simulation time: 01 hr 00 min 49 sec)
Heartbeat CPU 0 instructions: 550000001 cycles: 176339486 heartbeat IPC: 3.357 cumulative IPC: 3.052 (Simulation time: 01 hr 01 min 54 sec)
Heartbeat CPU 0 instructions: 560000000 cycles: 179432835 heartbeat IPC: 3.233 cumulative IPC: 3.056 (Simulation time: 01 hr 03 min 00 sec)
Heartbeat CPU 0 instructions: 570000004 cycles: 184681874 heartbeat IPC: 1.905 cumulative IPC: 3.021 (Simulation time: 01 hr 04 min 25 sec)
Heartbeat CPU 0 instructions: 580000003 cycles: 190965118 heartbeat IPC: 1.592 cumulative IPC: 2.97 (Simulation time: 01 hr 05 min 59 sec)
Heartbeat CPU 0 instructions: 590000002 cycles: 197395759 heartbeat IPC: 1.555 cumulative IPC: 2.921 (Simulation time: 01 hr 07 min 38 sec)
Heartbeat CPU 0 instructions: 600000004 cycles: 200340583 heartbeat IPC: 3.396 cumulative IPC: 2.929 (Simulation time: 01 hr 08 min 42 sec)
Heartbeat CPU 0 instructions: 610000002 cycles: 203239055 heartbeat IPC: 3.45 cumulative IPC: 2.937 (Simulation time: 01 hr 09 min 49 sec)
Heartbeat CPU 0 instructions: 620000001 cycles: 205970462 heartbeat IPC: 3.661 cumulative IPC: 2.947 (Simulation time: 01 hr 10 min 59 sec)
Heartbeat CPU 0 instructions: 630000002 cycles: 208875221 heartbeat IPC: 3.443 cumulative IPC: 2.954 (Simulation time: 01 hr 12 min 04 sec)
Heartbeat CPU 0 instructions: 640000004 cycles: 211799261 heartbeat IPC: 3.42 cumulative IPC: 2.961 (Simulation time: 01 hr 13 min 16 sec)
Heartbeat CPU 0 instructions: 650000000 cycles: 214524327 heartbeat IPC: 3.67 cumulative IPC: 2.97 (Simulation time: 01 hr 14 min 28 sec)
Simulation finished CPU 0 instructions: 600000001 cycles: 201987195 cumulative IPC: 2.97 (Simulation time: 01 hr 14 min 28 sec)
Simulation complete CPU 0 instructions: 600000001 cycles: 201987195 cumulative IPC: 2.97 (Simulation time: 01 hr 14 min 28 sec)

ChampSim completed all CPUs

=== Simulation ===
CPU 0 runs traces/400.perlbench-41B.champsimtrace.xz
Region of Interest Statistics

CPU 0 cumulative IPC: 2.97 instructions: 600000001 cycles: 201987195
CPU 0 Branch Prediction Accuracy: 99.19% MPKI: 1.684 Average ROB Occupancy at Mispredict: 101.6
Branch type MPKI
BRANCH_DIRECT_JUMP: 0.0123
BRANCH_INDIRECT: 0.323
BRANCH_CONDITIONAL: 1.14
BRANCH_DIRECT_CALL: 0.0043
BRANCH_INDIRECT_CALL: 0.2
BRANCH_RETURN: 0.00828

LLC TOTAL        ACCESS:     540588 HIT:     408518 MISS:     132070
LLC LOAD         ACCESS:     403683 HIT:     298951 MISS:     104732
LLC RFO          ACCESS:      32515 HIT:      22630 MISS:       9885
LLC PREFETCH     ACCESS:          0 HIT:          0 MISS:          0
LLC WRITE        ACCESS:      85326 HIT:      77770 MISS:       7556
LLC TRANSLATION  ACCESS:      19064 HIT:       9167 MISS:       9897
LLC PREFETCH REQUESTED:          0 ISSUED:          0 USEFUL:          0 USELESS:          0
LLC AVERAGE MISS LATENCY: 552.8 cycles
cpu0_DTLB TOTAL        ACCESS:  129751221 HIT:  129047404 MISS:     703817
cpu0_DTLB LOAD         ACCESS:  129751221 HIT:  129047404 MISS:     703817
cpu0_DTLB RFO          ACCESS:          0 HIT:          0 MISS:          0
cpu0_DTLB PREFETCH     ACCESS:          0 HIT:          0 MISS:          0
cpu0_DTLB WRITE        ACCESS:          0 HIT:          0 MISS:          0
cpu0_DTLB TRANSLATION  ACCESS:          0 HIT:          0 MISS:          0
cpu0_DTLB PREFETCH REQUESTED:          0 ISSUED:          0 USEFUL:          0 USELESS:          0
cpu0_DTLB AVERAGE MISS LATENCY: 13.54 cycles
cpu0_ITLB TOTAL        ACCESS:    4873025 HIT:    4810937 MISS:      62088
cpu0_ITLB LOAD         ACCESS:    4873025 HIT:    4810937 MISS:      62088
cpu0_ITLB RFO          ACCESS:          0 HIT:          0 MISS:          0
cpu0_ITLB PREFETCH     ACCESS:          0 HIT:          0 MISS:          0
cpu0_ITLB WRITE        ACCESS:          0 HIT:          0 MISS:          0
cpu0_ITLB TRANSLATION  ACCESS:          0 HIT:          0 MISS:          0
cpu0_ITLB PREFETCH REQUESTED:          0 ISSUED:          0 USEFUL:          0 USELESS:          0
cpu0_ITLB AVERAGE MISS LATENCY: 5.136 cycles
cpu0_L1D TOTAL        ACCESS:  174358700 HIT:  172608985 MISS:    1749715
cpu0_L1D LOAD         ACCESS:   91336368 HIT:   89975958 MISS:    1360410
cpu0_L1D RFO          ACCESS:          0 HIT:          0 MISS:          0
cpu0_L1D PREFETCH     ACCESS:          0 HIT:          0 MISS:          0
cpu0_L1D WRITE        ACCESS:   82997871 HIT:   82631970 MISS:     365901
cpu0_L1D TRANSLATION  ACCESS:      24461 HIT:       1057 MISS:      23404
cpu0_L1D PREFETCH REQUESTED:          0 ISSUED:          0 USEFUL:          0 USELESS:          0
cpu0_L1D AVERAGE MISS LATENCY: 46.05 cycles
cpu0_L1I TOTAL        ACCESS:    5652081 HIT:    4847710 MISS:     804371
cpu0_L1I LOAD         ACCESS:    5652081 HIT:    4847710 MISS:     804371
cpu0_L1I RFO          ACCESS:          0 HIT:          0 MISS:          0
cpu0_L1I PREFETCH     ACCESS:          0 HIT:          0 MISS:          0
cpu0_L1I WRITE        ACCESS:          0 HIT:          0 MISS:          0
cpu0_L1I TRANSLATION  ACCESS:          0 HIT:          0 MISS:          0
cpu0_L1I PREFETCH REQUESTED:          0 ISSUED:          0 USEFUL:          0 USELESS:          0
cpu0_L1I AVERAGE MISS LATENCY: 10.86 cycles
cpu0_L2C TOTAL        ACCESS:    1668223 HIT:    1211111 MISS:     457112
cpu0_L2C LOAD         ACCESS:    1315346 HIT:     911663 MISS:     403683
cpu0_L2C RFO          ACCESS:      89580 HIT:      57064 MISS:      32516
cpu0_L2C PREFETCH     ACCESS:          0 HIT:          0 MISS:          0
cpu0_L2C WRITE        ACCESS:     239974 HIT:     238125 MISS:       1849
cpu0_L2C TRANSLATION  ACCESS:      23323 HIT:       4259 MISS:      19064
cpu0_L2C PREFETCH REQUESTED:          0 ISSUED:          0 USEFUL:          0 USELESS:          0
cpu0_L2C AVERAGE MISS LATENCY: 179.9 cycles
cpu0_STLB TOTAL        ACCESS:     508700 HIT:     485915 MISS:      22785
cpu0_STLB LOAD         ACCESS:     508700 HIT:     485915 MISS:      22785
cpu0_STLB RFO          ACCESS:          0 HIT:          0 MISS:          0
cpu0_STLB PREFETCH     ACCESS:          0 HIT:          0 MISS:          0
cpu0_STLB WRITE        ACCESS:          0 HIT:          0 MISS:          0
cpu0_STLB TRANSLATION  ACCESS:          0 HIT:          0 MISS:          0
cpu0_STLB PREFETCH REQUESTED:          0 ISSUED:          0 USEFUL:          0 USELESS:          0
cpu0_STLB AVERAGE MISS LATENCY: 304.1 cycles

DRAM Statistics

Channel 0 RQ ROW_BUFFER_HIT:      21343
  ROW_BUFFER_MISS:     103125
 AVG DBUS CONGESTED CYCLE: 3.807
WQ ROW_BUFFER_HIT: Channel 0 
  ROW_BUFFER_MISS:       5838
  FULL:      15820
