WARNING: physical memory size is smaller than virtual memory size.

*** ChampSim Multicore Out-of-Order Simulator ***
Warmup Instructions: 50000000
Simulation Instructions: 600000000
Number of CPUs: 1
Page size: 4096

CPU 0 Tage branch predictor
Off-chip DRAM Size: 4 GiB Channels: 1 Width: 64-bit Data Race: 3200 MT/s
Heartbeat CPU 0 instructions: 10000000 cycles: 2500061 heartbeat IPC: 4 cumulative IPC: 4 (Simulation time: 00 hr 02 min 09 sec)
Heartbeat CPU 0 instructions: 20000000 cycles: 5000061 heartbeat IPC: 4 cumulative IPC: 4 (Simulation time: 00 hr 04 min 52 sec)
Heartbeat CPU 0 instructions: 30000000 cycles: 7500061 heartbeat IPC: 4 cumulative IPC: 4 (Simulation time: 00 hr 08 min 21 sec)
Heartbeat CPU 0 instructions: 40000000 cycles: 10000061 heartbeat IPC: 4 cumulative IPC: 4 (Simulation time: 00 hr 12 min 25 sec)
Heartbeat CPU 0 instructions: 50000000 cycles: 12500061 heartbeat IPC: 4 cumulative IPC: 4 (Simulation time: 00 hr 16 min 22 sec)
Warmup finished CPU 0 instructions: 50000000 cycles: 12500062 cumulative IPC: 4 (Simulation time: 00 hr 16 min 22 sec)
Warmup complete CPU 0 instructions: 50000000 cycles: 12500062 cumulative IPC: 4 (Simulation time: 00 hr 16 min 22 sec)
Heartbeat CPU 0 instructions: 60000004 cycles: 15504574 heartbeat IPC: 3.328 cumulative IPC: 3.328 (Simulation time: 00 hr 21 min 01 sec)
Heartbeat CPU 0 instructions: 70000003 cycles: 18375027 heartbeat IPC: 3.484 cumulative IPC: 3.404 (Simulation time: 00 hr 25 min 36 sec)
Heartbeat CPU 0 instructions: 80000002 cycles: 21385455 heartbeat IPC: 3.322 cumulative IPC: 3.376 (Simulation time: 00 hr 30 min 13 sec)
Heartbeat CPU 0 instructions: 90000000 cycles: 24106445 heartbeat IPC: 3.675 cumulative IPC: 3.446 (Simulation time: 00 hr 34 min 41 sec)
Heartbeat CPU 0 instructions: 100000003 cycles: 26861573 heartbeat IPC: 3.63 cumulative IPC: 3.482 (Simulation time: 00 hr 39 min 11 sec)
Heartbeat CPU 0 instructions: 110000001 cycles: 29760716 heartbeat IPC: 3.449 cumulative IPC: 3.476 (Simulation time: 00 hr 43 min 44 sec)
Heartbeat CPU 0 instructions: 120000001 cycles: 32476957 heartbeat IPC: 3.682 cumulative IPC: 3.504 (Simulation time: 00 hr 48 min 11 sec)
Heartbeat CPU 0 instructions: 130000003 cycles: 35373828 heartbeat IPC: 3.452 cumulative IPC: 3.497 (Simulation time: 00 hr 52 min 46 sec)
Heartbeat CPU 0 instructions: 140000002 cycles: 38209923 heartbeat IPC: 3.526 cumulative IPC: 3.501 (Simulation time: 00 hr 57 min 17 sec)
Heartbeat CPU 0 instructions: 150000001 cycles: 40979169 heartbeat IPC: 3.611 cumulative IPC: 3.511 (Simulation time: 01 hr 01 min 46 sec)
Heartbeat CPU 0 instructions: 160000000 cycles: 43896422 heartbeat IPC: 3.428 cumulative IPC: 3.504 (Simulation time: 01 hr 06 min 19 sec)
Heartbeat CPU 0 instructions: 170000001 cycles: 46819705 heartbeat IPC: 3.421 cumulative IPC: 3.497 (Simulation time: 01 hr 10 min 56 sec)
Heartbeat CPU 0 instructions: 180000000 cycles: 49612091 heartbeat IPC: 3.581 cumulative IPC: 3.503 (Simulation time: 01 hr 15 min 29 sec)
Heartbeat CPU 0 instructions: 190000002 cycles: 52318430 heartbeat IPC: 3.695 cumulative IPC: 3.516 (Simulation time: 01 hr 20 min 00 sec)
Heartbeat CPU 0 instructions: 200000002 cycles: 55141199 heartbeat IPC: 3.543 cumulative IPC: 3.518 (Simulation time: 01 hr 24 min 36 sec)
Heartbeat CPU 0 instructions: 210000000 cycles: 58032005 heartbeat IPC: 3.459 cumulative IPC: 3.514 (Simulation time: 01 hr 29 min 09 sec)
Heartbeat CPU 0 instructions: 220000001 cycles: 60781438 heartbeat IPC: 3.637 cumulative IPC: 3.521 (Simulation time: 01 hr 33 min 43 sec)
Heartbeat CPU 0 instructions: 230000002 cycles: 63668564 heartbeat IPC: 3.464 cumulative IPC: 3.518 (Simulation time: 01 hr 38 min 17 sec)
Heartbeat CPU 0 instructions: 240000004 cycles: 66619176 heartbeat IPC: 3.389 cumulative IPC: 3.511 (Simulation time: 01 hr 42 min 56 sec)
Heartbeat CPU 0 instructions: 250000003 cycles: 69509596 heartbeat IPC: 3.46 cumulative IPC: 3.508 (Simulation time: 01 hr 47 min 32 sec)
Heartbeat CPU 0 instructions: 260000001 cycles: 72292418 heartbeat IPC: 3.593 cumulative IPC: 3.512 (Simulation time: 01 hr 52 min 04 sec)
Heartbeat CPU 0 instructions: 270000002 cycles: 78010768 heartbeat IPC: 1.749 cumulative IPC: 3.358 (Simulation time: 01 hr 58 min 31 sec)
Heartbeat CPU 0 instructions: 280000000 cycles: 86550476 heartbeat IPC: 1.171 cumulative IPC: 3.106 (Simulation time: 02 hr 06 min 52 sec)
Heartbeat CPU 0 instructions: 290000000 cycles: 93677063 heartbeat IPC: 1.403 cumulative IPC: 2.957 (Simulation time: 02 hr 14 min 26 sec)
Heartbeat CPU 0 instructions: 300000003 cycles: 98716469 heartbeat IPC: 1.984 cumulative IPC: 2.9 (Simulation time: 02 hr 20 min 50 sec)
Heartbeat CPU 0 instructions: 310000001 cycles: 106100072 heartbeat IPC: 1.354 cumulative IPC: 2.778 (Simulation time: 02 hr 28 min 45 sec)
Heartbeat CPU 0 instructions: 320000004 cycles: 109764357 heartbeat IPC: 2.729 cumulative IPC: 2.776 (Simulation time: 02 hr 34 min 07 sec)
Heartbeat CPU 0 instructions: 330000000 cycles: 112913340 heartbeat IPC: 3.176 cumulative IPC: 2.788 (Simulation time: 02 hr 38 min 57 sec)
Heartbeat CPU 0 instructions: 340000001 cycles: 116074743 heartbeat IPC: 3.163 cumulative IPC: 2.8 (Simulation time: 02 hr 43 min 49 sec)
Heartbeat CPU 0 instructions: 350000000 cycles: 119417215 heartbeat IPC: 2.992 cumulative IPC: 2.806 (Simulation time: 02 hr 48 min 49 sec)
Heartbeat CPU 0 instructions: 360000004 cycles: 122546242 heartbeat IPC: 3.196 cumulative IPC: 2.817 (Simulation time: 02 hr 53 min 42 sec)
Heartbeat CPU 0 instructions: 370000001 cycles: 125626892 heartbeat IPC: 3.246 cumulative IPC: 2.829 (Simulation time: 02 hr 58 min 30 sec)
Heartbeat CPU 0 instructions: 380000004 cycles: 128725448 heartbeat IPC: 3.227 cumulative IPC: 2.839 (Simulation time: 03 hr 03 min 20 sec)
Heartbeat CPU 0 instructions: 390000002 cycles: 131942702 heartbeat IPC: 3.108 cumulative IPC: 2.847 (Simulation time: 03 hr 08 min 12 sec)
Heartbeat CPU 0 instructions: 400000000 cycles: 135219152 heartbeat IPC: 3.052 cumulative IPC: 2.852 (Simulation time: 03 hr 13 min 10 sec)
Heartbeat CPU 0 instructions: 410000000 cycles: 141016635 heartbeat IPC: 1.725 cumulative IPC: 2.801 (Simulation time: 03 hr 19 min 46 sec)
Heartbeat CPU 0 instructions: 420000003 cycles: 149268386 heartbeat IPC: 1.212 cumulative IPC: 2.705 (Simulation time: 03 hr 28 min 06 sec)
Heartbeat CPU 0 instructions: 430000000 cycles: 154452268 heartbeat IPC: 1.929 cumulative IPC: 2.677 (Simulation time: 03 hr 34 min 38 sec)
Heartbeat CPU 0 instructions: 440000004 cycles: 159042883 heartbeat IPC: 2.178 cumulative IPC: 2.661 (Simulation time: 03 hr 40 min 43 sec)
Heartbeat CPU 0 instructions: 450000001 cycles: 163689747 heartbeat IPC: 2.152 cumulative IPC: 2.646 (Simulation time: 03 hr 46 min 46 sec)
Heartbeat CPU 0 instructions: 460000002 cycles: 170743782 heartbeat IPC: 1.418 cumulative IPC: 2.591 (Simulation time: 03 hr 54 min 27 sec)
Heartbeat CPU 0 instructions: 470000003 cycles: 177441036 heartbeat IPC: 1.493 cumulative IPC: 2.546 (Simulation time: 04 hr 01 min 51 sec)
Heartbeat CPU 0 instructions: 480000000 cycles: 180804149 heartbeat IPC: 2.973 cumulative IPC: 2.555 (Simulation time: 04 hr 06 min 53 sec)
Heartbeat CPU 0 instructions: 490000001 cycles: 184411859 heartbeat IPC: 2.772 cumulative IPC: 2.559 (Simulation time: 04 hr 12 min 03 sec)
Heartbeat CPU 0 instructions: 500000002 cycles: 187854493 heartbeat IPC: 2.905 cumulative IPC: 2.566 (Simulation time: 04 hr 17 min 10 sec)
Heartbeat CPU 0 instructions: 510000000 cycles: 191289985 heartbeat IPC: 2.911 cumulative IPC: 2.573 (Simulation time: 04 hr 22 min 26 sec)
Heartbeat CPU 0 instructions: 520000000 cycles: 194743059 heartbeat IPC: 2.896 cumulative IPC: 2.579 (Simulation time: 04 hr 27 min 34 sec)
Heartbeat CPU 0 instructions: 530000001 cycles: 203196828 heartbeat IPC: 1.183 cumulative IPC: 2.517 (Simulation time: 04 hr 35 min 59 sec)
Heartbeat CPU 0 instructions: 540000000 cycles: 210974188 heartbeat IPC: 1.286 cumulative IPC: 2.469 (Simulation time: 04 hr 44 min 08 sec)
Heartbeat CPU 0 instructions: 550000004 cycles: 220105718 heartbeat IPC: 1.095 cumulative IPC: 2.408 (Simulation time: 04 hr 53 min 03 sec)
Heartbeat CPU 0 instructions: 560000004 cycles: 223527015 heartbeat IPC: 2.923 cumulative IPC: 2.417 (Simulation time: 04 hr 58 min 02 sec)
Heartbeat CPU 0 instructions: 570000002 cycles: 226345285 heartbeat IPC: 3.548 cumulative IPC: 2.432 (Simulation time: 05 hr 02 min 42 sec)
Heartbeat CPU 0 instructions: 580000000 cycles: 229266416 heartbeat IPC: 3.423 cumulative IPC: 2.445 (Simulation time: 05 hr 07 min 23 sec)
Heartbeat CPU 0 instructions: 590000001 cycles: 232190184 heartbeat IPC: 3.42 cumulative IPC: 2.458 (Simulation time: 05 hr 12 min 02 sec)
Heartbeat CPU 0 instructions: 600000003 cycles: 234879957 heartbeat IPC: 3.718 cumulative IPC: 2.473 (Simulation time: 05 hr 16 min 47 sec)
Heartbeat CPU 0 instructions: 610000001 cycles: 237742619 heartbeat IPC: 3.493 cumulative IPC: 2.486 (Simulation time: 05 hr 21 min 37 sec)
Heartbeat CPU 0 instructions: 620000004 cycles: 240693771 heartbeat IPC: 3.389 cumulative IPC: 2.498 (Simulation time: 05 hr 26 min 30 sec)
Heartbeat CPU 0 instructions: 630000002 cycles: 243502573 heartbeat IPC: 3.56 cumulative IPC: 2.511 (Simulation time: 05 hr 31 min 17 sec)
Heartbeat CPU 0 instructions: 640000004 cycles: 246549580 heartbeat IPC: 3.282 cumulative IPC: 2.521 (Simulation time: 05 hr 36 min 17 sec)
Heartbeat CPU 0 instructions: 650000001 cycles: 249261535 heartbeat IPC: 3.687 cumulative IPC: 2.534 (Simulation time: 05 hr 40 min 59 sec)
Simulation finished CPU 0 instructions: 600000001 cycles: 236761474 cumulative IPC: 2.534 (Simulation time: 05 hr 40 min 59 sec)
Simulation complete CPU 0 instructions: 600000001 cycles: 236761474 cumulative IPC: 2.534 (Simulation time: 05 hr 40 min 59 sec)

ChampSim completed all CPUs

=== Simulation ===
CPU 0 runs traces/400.perlbench-50B.champsimtrace.xz
Region of Interest Statistics

CPU 0 cumulative IPC: 2.534 instructions: 600000001 cycles: 236761474
CPU 0 Branch Prediction Accuracy: 99.01% MPKI: 2.04 Average ROB Occupancy at Mispredict: 94.56
Branch type MPKI
BRANCH_DIRECT_JUMP: 0.0176
BRANCH_INDIRECT: 0.38
BRANCH_CONDITIONAL: 1.19
BRANCH_DIRECT_CALL: 0.0067
BRANCH_INDIRECT_CALL: 0.431
BRANCH_RETURN: 0.0161

LLC TOTAL        ACCESS:     835471 HIT:     548807 MISS:     286664
LLC LOAD         ACCESS:     575742 HIT:     344320 MISS:     231422
LLC RFO          ACCESS:      47052 HIT:      29493 MISS:      17559
LLC PREFETCH     ACCESS:      64113 HIT:      37211 MISS:      26902
LLC WRITE        ACCESS:     126477 HIT:     126293 MISS:        184
LLC TRANSLATION  ACCESS:      22087 HIT:      11490 MISS:      10597
LLC PREFETCH REQUESTED:      64113 ISSUED:      64113 USEFUL:      17129 USELESS:       5417
LLC AVERAGE MISS LATENCY: 597.2 cycles
cpu0_DTLB TOTAL        ACCESS:  133240333 HIT:  131886547 MISS:    1353786
cpu0_DTLB LOAD         ACCESS:  133240333 HIT:  131886547 MISS:    1353786
cpu0_DTLB RFO          ACCESS:          0 HIT:          0 MISS:          0
cpu0_DTLB PREFETCH     ACCESS:          0 HIT:          0 MISS:          0
cpu0_DTLB WRITE        ACCESS:          0 HIT:          0 MISS:          0
cpu0_DTLB TRANSLATION  ACCESS:          0 HIT:          0 MISS:          0
cpu0_DTLB PREFETCH REQUESTED:          0 ISSUED:          0 USEFUL:          0 USELESS:          0
cpu0_DTLB AVERAGE MISS LATENCY: 10.93 cycles
cpu0_ITLB TOTAL        ACCESS:    8999162 HIT:    8789711 MISS:     209451
cpu0_ITLB LOAD         ACCESS:    8999162 HIT:    8789711 MISS:     209451
cpu0_ITLB RFO          ACCESS:          0 HIT:          0 MISS:          0
cpu0_ITLB PREFETCH     ACCESS:          0 HIT:          0 MISS:          0
cpu0_ITLB WRITE        ACCESS:          0 HIT:          0 MISS:          0
cpu0_ITLB TRANSLATION  ACCESS:          0 HIT:          0 MISS:          0
cpu0_ITLB PREFETCH REQUESTED:          0 ISSUED:          0 USEFUL:          0 USELESS:          0
cpu0_ITLB AVERAGE MISS LATENCY: 2.683 cycles
cpu0_L1D TOTAL        ACCESS:  178271738 HIT:  174485579 MISS:    3786159
cpu0_L1D LOAD         ACCESS:   92751971 HIT:   89648135 MISS:    3103836
cpu0_L1D RFO          ACCESS:          0 HIT:          0 MISS:          0
cpu0_L1D PREFETCH     ACCESS:          0 HIT:          0 MISS:          0
cpu0_L1D WRITE        ACCESS:   85491237 HIT:   84836020 MISS:     655217
cpu0_L1D TRANSLATION  ACCESS:      28530 HIT:       1424 MISS:      27106
cpu0_L1D PREFETCH REQUESTED:          0 ISSUED:          0 USEFUL:          0 USELESS:          0
cpu0_L1D AVERAGE MISS LATENCY: 44.52 cycles
cpu0_L1I TOTAL        ACCESS:   10518607 HIT:    8619584 MISS:    1899023
cpu0_L1I LOAD         ACCESS:   10518607 HIT:    8619584 MISS:    1899023
cpu0_L1I RFO          ACCESS:          0 HIT:          0 MISS:          0
cpu0_L1I PREFETCH     ACCESS:          0 HIT:          0 MISS:          0
cpu0_L1I WRITE        ACCESS:          0 HIT:          0 MISS:          0
cpu0_L1I TRANSLATION  ACCESS:          0 HIT:          0 MISS:          0
cpu0_L1I PREFETCH REQUESTED:          0 ISSUED:          0 USEFUL:          0 USELESS:          0
cpu0_L1I AVERAGE MISS LATENCY: 9.586 cycles
cpu0_L2C TOTAL        ACCESS:    3840407 HIT:    3192352 MISS:     648055
cpu0_L2C LOAD         ACCESS:    3103824 HIT:    2528082 MISS:     575742
cpu0_L2C RFO          ACCESS:     194864 HIT:     147812 MISS:      47052
cpu0_L2C PREFETCH     ACCESS:          0 HIT:          0 MISS:          0
cpu0_L2C WRITE        ACCESS:     514685 HIT:     511511 MISS:       3174
cpu0_L2C TRANSLATION  ACCESS:      27034 HIT:       4947 MISS:      22087
cpu0_L2C PREFETCH REQUESTED:          0 ISSUED:          0 USEFUL:          0 USELESS:          0
cpu0_L2C AVERAGE MISS LATENCY: 258 cycles
cpu0_STLB TOTAL        ACCESS:    1009801 HIT:     983111 MISS:      26690
cpu0_STLB LOAD         ACCESS:    1009801 HIT:     983111 MISS:      26690
cpu0_STLB RFO          ACCESS:          0 HIT:          0 MISS:          0
cpu0_STLB PREFETCH     ACCESS:          0 HIT:          0 MISS:          0
cpu0_STLB WRITE        ACCESS:          0 HIT:          0 MISS:          0
cpu0_STLB TRANSLATION  ACCESS:          0 HIT:          0 MISS:          0
cpu0_STLB PREFETCH REQUESTED:          0 ISSUED:          0 USEFUL:          0 USELESS:          0
cpu0_STLB AVERAGE MISS LATENCY: 346.7 cycles

DRAM Statistics

Channel 0 RQ ROW_BUFFER_HIT:      67537
  ROW_BUFFER_MISS:     213573
 AVG DBUS CONGESTED CYCLE: 3.83
WQ ROW_BUFFER_HIT: Channel 0 
  ROW_BUFFER_MISS:       5058
  FULL:      28477
