WARNING: physical memory size is smaller than virtual memory size.

*** ChampSim Multicore Out-of-Order Simulator ***
Warmup Instructions: 50000000
Simulation Instructions: 600000000
Number of CPUs: 1
Page size: 4096

Off-chip DRAM Size: 4 GiB Channels: 1 Width: 64-bit Data Race: 3200 MT/s
Heartbeat CPU 0 instructions: 10000000 cycles: 2500061 heartbeat IPC: 4 cumulative IPC: 4 (Simulation time: 00 hr 01 min 19 sec)
Heartbeat CPU 0 instructions: 20000000 cycles: 5000061 heartbeat IPC: 4 cumulative IPC: 4 (Simulation time: 00 hr 03 min 02 sec)
Heartbeat CPU 0 instructions: 30000000 cycles: 7500061 heartbeat IPC: 4 cumulative IPC: 4 (Simulation time: 00 hr 05 min 15 sec)
Heartbeat CPU 0 instructions: 40000000 cycles: 10000061 heartbeat IPC: 4 cumulative IPC: 4 (Simulation time: 00 hr 07 min 44 sec)
Heartbeat CPU 0 instructions: 50000000 cycles: 12500061 heartbeat IPC: 4 cumulative IPC: 4 (Simulation time: 00 hr 10 min 45 sec)
Warmup finished CPU 0 instructions: 50000000 cycles: 12500062 cumulative IPC: 4 (Simulation time: 00 hr 10 min 45 sec)
Warmup complete CPU 0 instructions: 50000000 cycles: 12500062 cumulative IPC: 4 (Simulation time: 00 hr 10 min 45 sec)
Heartbeat CPU 0 instructions: 60000002 cycles: 16907366 heartbeat IPC: 2.269 cumulative IPC: 2.269 (Simulation time: 00 hr 15 min 39 sec)
Heartbeat CPU 0 instructions: 70000003 cycles: 21889050 heartbeat IPC: 2.007 cumulative IPC: 2.13 (Simulation time: 00 hr 20 min 31 sec)
Heartbeat CPU 0 instructions: 80000001 cycles: 27230745 heartbeat IPC: 1.872 cumulative IPC: 2.037 (Simulation time: 00 hr 25 min 37 sec)
Heartbeat CPU 0 instructions: 90000000 cycles: 31527294 heartbeat IPC: 2.327 cumulative IPC: 2.102 (Simulation time: 00 hr 30 min 09 sec)
Heartbeat CPU 0 instructions: 100000003 cycles: 36379334 heartbeat IPC: 2.061 cumulative IPC: 2.094 (Simulation time: 00 hr 35 min 01 sec)
Heartbeat CPU 0 instructions: 110000002 cycles: 41247374 heartbeat IPC: 2.054 cumulative IPC: 2.087 (Simulation time: 00 hr 39 min 49 sec)
Heartbeat CPU 0 instructions: 120000001 cycles: 46240828 heartbeat IPC: 2.003 cumulative IPC: 2.075 (Simulation time: 00 hr 44 min 40 sec)
Heartbeat CPU 0 instructions: 130000003 cycles: 50807189 heartbeat IPC: 2.19 cumulative IPC: 2.088 (Simulation time: 00 hr 49 min 20 sec)
Heartbeat CPU 0 instructions: 140000002 cycles: 55694832 heartbeat IPC: 2.046 cumulative IPC: 2.084 (Simulation time: 00 hr 54 min 09 sec)
Heartbeat CPU 0 instructions: 150000001 cycles: 60360024 heartbeat IPC: 2.144 cumulative IPC: 2.089 (Simulation time: 00 hr 58 min 51 sec)
Heartbeat CPU 0 instructions: 160000000 cycles: 64996045 heartbeat IPC: 2.157 cumulative IPC: 2.095 (Simulation time: 01 hr 03 min 34 sec)
Heartbeat CPU 0 instructions: 170000000 cycles: 70325364 heartbeat IPC: 1.876 cumulative IPC: 2.075 (Simulation time: 01 hr 08 min 37 sec)
Heartbeat CPU 0 instructions: 180000001 cycles: 76043102 heartbeat IPC: 1.749 cumulative IPC: 2.046 (Simulation time: 01 hr 13 min 54 sec)
Heartbeat CPU 0 instructions: 190000002 cycles: 80511237 heartbeat IPC: 2.238 cumulative IPC: 2.058 (Simulation time: 01 hr 18 min 35 sec)
Heartbeat CPU 0 instructions: 200000002 cycles: 85411245 heartbeat IPC: 2.041 cumulative IPC: 2.057 (Simulation time: 01 hr 23 min 26 sec)
Heartbeat CPU 0 instructions: 210000000 cycles: 90413026 heartbeat IPC: 1.999 cumulative IPC: 2.054 (Simulation time: 01 hr 28 min 23 sec)
Heartbeat CPU 0 instructions: 220000001 cycles: 95334767 heartbeat IPC: 2.032 cumulative IPC: 2.052 (Simulation time: 01 hr 33 min 14 sec)
Heartbeat CPU 0 instructions: 230000002 cycles: 100578650 heartbeat IPC: 1.907 cumulative IPC: 2.044 (Simulation time: 01 hr 38 min 16 sec)
Heartbeat CPU 0 instructions: 240000001 cycles: 105540806 heartbeat IPC: 2.015 cumulative IPC: 2.042 (Simulation time: 01 hr 43 min 09 sec)
Heartbeat CPU 0 instructions: 250000003 cycles: 110715200 heartbeat IPC: 1.933 cumulative IPC: 2.036 (Simulation time: 01 hr 48 min 06 sec)
Heartbeat CPU 0 instructions: 260000001 cycles: 115571230 heartbeat IPC: 2.059 cumulative IPC: 2.037 (Simulation time: 01 hr 52 min 59 sec)
Heartbeat CPU 0 instructions: 270000000 cycles: 123225925 heartbeat IPC: 1.306 cumulative IPC: 1.987 (Simulation time: 01 hr 59 min 35 sec)
Heartbeat CPU 0 instructions: 280000000 cycles: 134186036 heartbeat IPC: 0.9124 cumulative IPC: 1.89 (Simulation time: 02 hr 08 min 19 sec)
Heartbeat CPU 0 instructions: 290000001 cycles: 143929707 heartbeat IPC: 1.026 cumulative IPC: 1.826 (Simulation time: 02 hr 16 min 24 sec)
Heartbeat CPU 0 instructions: 300000003 cycles: 151346772 heartbeat IPC: 1.348 cumulative IPC: 1.801 (Simulation time: 02 hr 23 min 14 sec)
Heartbeat CPU 0 instructions: 310000004 cycles: 161733734 heartbeat IPC: 0.9627 cumulative IPC: 1.742 (Simulation time: 02 hr 31 min 49 sec)
Heartbeat CPU 0 instructions: 320000004 cycles: 167334560 heartbeat IPC: 1.785 cumulative IPC: 1.744 (Simulation time: 02 hr 37 min 21 sec)
Heartbeat CPU 0 instructions: 330000000 cycles: 172624518 heartbeat IPC: 1.89 cumulative IPC: 1.749 (Simulation time: 02 hr 42 min 32 sec)
Heartbeat CPU 0 instructions: 340000001 cycles: 177842134 heartbeat IPC: 1.917 cumulative IPC: 1.754 (Simulation time: 02 hr 47 min 38 sec)
Heartbeat CPU 0 instructions: 350000000 cycles: 183272971 heartbeat IPC: 1.841 cumulative IPC: 1.757 (Simulation time: 02 hr 52 min 55 sec)
Heartbeat CPU 0 instructions: 360000003 cycles: 188450533 heartbeat IPC: 1.931 cumulative IPC: 1.762 (Simulation time: 02 hr 58 min 01 sec)
Heartbeat CPU 0 instructions: 370000001 cycles: 193544805 heartbeat IPC: 1.963 cumulative IPC: 1.768 (Simulation time: 03 hr 03 min 07 sec)
Heartbeat CPU 0 instructions: 380000004 cycles: 198910438 heartbeat IPC: 1.864 cumulative IPC: 1.77 (Simulation time: 03 hr 08 min 20 sec)
Heartbeat CPU 0 instructions: 390000002 cycles: 204328387 heartbeat IPC: 1.846 cumulative IPC: 1.772 (Simulation time: 03 hr 13 min 35 sec)
Heartbeat CPU 0 instructions: 400000000 cycles: 209827694 heartbeat IPC: 1.818 cumulative IPC: 1.774 (Simulation time: 03 hr 18 min 53 sec)
Heartbeat CPU 0 instructions: 410000000 cycles: 217739022 heartbeat IPC: 1.264 cumulative IPC: 1.754 (Simulation time: 03 hr 25 min 45 sec)
Heartbeat CPU 0 instructions: 420000001 cycles: 228546151 heartbeat IPC: 0.9253 cumulative IPC: 1.713 (Simulation time: 03 hr 34 min 28 sec)
Heartbeat CPU 0 instructions: 430000000 cycles: 235981916 heartbeat IPC: 1.345 cumulative IPC: 1.7 (Simulation time: 03 hr 41 min 21 sec)
Heartbeat CPU 0 instructions: 440000002 cycles: 242862776 heartbeat IPC: 1.453 cumulative IPC: 1.693 (Simulation time: 03 hr 47 min 47 sec)
Heartbeat CPU 0 instructions: 450000000 cycles: 249626781 heartbeat IPC: 1.478 cumulative IPC: 1.687 (Simulation time: 03 hr 54 min 12 sec)
Heartbeat CPU 0 instructions: 460000002 cycles: 259539511 heartbeat IPC: 1.009 cumulative IPC: 1.66 (Simulation time: 04 hr 02 min 31 sec)
Heartbeat CPU 0 instructions: 470000000 cycles: 269012790 heartbeat IPC: 1.056 cumulative IPC: 1.637 (Simulation time: 04 hr 10 min 29 sec)
Heartbeat CPU 0 instructions: 480000000 cycles: 274478325 heartbeat IPC: 1.83 cumulative IPC: 1.641 (Simulation time: 04 hr 15 min 49 sec)
Heartbeat CPU 0 instructions: 490000001 cycles: 280241545 heartbeat IPC: 1.735 cumulative IPC: 1.643 (Simulation time: 04 hr 21 min 19 sec)
Heartbeat CPU 0 instructions: 500000002 cycles: 285851233 heartbeat IPC: 1.783 cumulative IPC: 1.646 (Simulation time: 04 hr 26 min 47 sec)
Heartbeat CPU 0 instructions: 510000000 cycles: 291559256 heartbeat IPC: 1.752 cumulative IPC: 1.648 (Simulation time: 04 hr 32 min 16 sec)
Heartbeat CPU 0 instructions: 520000000 cycles: 297332399 heartbeat IPC: 1.732 cumulative IPC: 1.65 (Simulation time: 04 hr 37 min 47 sec)
Heartbeat CPU 0 instructions: 530000001 cycles: 308324922 heartbeat IPC: 0.9097 cumulative IPC: 1.623 (Simulation time: 04 hr 46 min 38 sec)
Heartbeat CPU 0 instructions: 540000000 cycles: 318440149 heartbeat IPC: 0.9886 cumulative IPC: 1.602 (Simulation time: 04 hr 55 min 08 sec)
Heartbeat CPU 0 instructions: 550000002 cycles: 330710925 heartbeat IPC: 0.8149 cumulative IPC: 1.571 (Simulation time: 05 hr 04 min 46 sec)
Heartbeat CPU 0 instructions: 560000004 cycles: 335436870 heartbeat IPC: 2.116 cumulative IPC: 1.579 (Simulation time: 05 hr 09 min 38 sec)
Heartbeat CPU 0 instructions: 570000001 cycles: 339843526 heartbeat IPC: 2.269 cumulative IPC: 1.589 (Simulation time: 05 hr 14 min 26 sec)
Heartbeat CPU 0 instructions: 580000003 cycles: 344084807 heartbeat IPC: 2.358 cumulative IPC: 1.598 (Simulation time: 05 hr 19 min 07 sec)
Heartbeat CPU 0 instructions: 590000001 cycles: 348984712 heartbeat IPC: 2.041 cumulative IPC: 1.605 (Simulation time: 05 hr 24 min 20 sec)
Heartbeat CPU 0 instructions: 600000003 cycles: 353624757 heartbeat IPC: 2.155 cumulative IPC: 1.612 (Simulation time: 05 hr 29 min 12 sec)
Heartbeat CPU 0 instructions: 610000001 cycles: 358483352 heartbeat IPC: 2.058 cumulative IPC: 1.619 (Simulation time: 05 hr 34 min 27 sec)
Heartbeat CPU 0 instructions: 620000000 cycles: 363549678 heartbeat IPC: 1.974 cumulative IPC: 1.624 (Simulation time: 05 hr 39 min 48 sec)
Heartbeat CPU 0 instructions: 630000002 cycles: 367794852 heartbeat IPC: 2.356 cumulative IPC: 1.632 (Simulation time: 05 hr 44 min 39 sec)
Heartbeat CPU 0 instructions: 640000004 cycles: 373115650 heartbeat IPC: 1.879 cumulative IPC: 1.636 (Simulation time: 05 hr 50 min 08 sec)
Heartbeat CPU 0 instructions: 650000001 cycles: 377880378 heartbeat IPC: 2.099 cumulative IPC: 1.642 (Simulation time: 05 hr 55 min 17 sec)
Simulation finished CPU 0 instructions: 600000001 cycles: 365380317 cumulative IPC: 1.642 (Simulation time: 05 hr 55 min 17 sec)
Simulation complete CPU 0 instructions: 600000001 cycles: 365380317 cumulative IPC: 1.642 (Simulation time: 05 hr 55 min 17 sec)

ChampSim completed all CPUs

=== Simulation ===
CPU 0 runs traces/400.perlbench-50B.champsimtrace.xz
Region of Interest Statistics

CPU 0 cumulative IPC: 1.642 instructions: 600000001 cycles: 365380317
CPU 0 Branch Prediction Accuracy: 93.83% MPKI: 12.71 Average ROB Occupancy at Mispredict: 29.45
Branch type MPKI
BRANCH_DIRECT_JUMP: 0.0176
BRANCH_INDIRECT: 0.38
BRANCH_CONDITIONAL: 11.9
BRANCH_DIRECT_CALL: 0.0067
BRANCH_INDIRECT_CALL: 0.431
BRANCH_RETURN: 0.0161

LLC TOTAL        ACCESS:     851172 HIT:     564761 MISS:     286411
LLC LOAD         ACCESS:     587470 HIT:     356722 MISS:     230748
LLC RFO          ACCESS:      47476 HIT:      29822 MISS:      17654
LLC PREFETCH     ACCESS:      65877 HIT:      38748 MISS:      27129
LLC WRITE        ACCESS:     128251 HIT:     128065 MISS:        186
LLC TRANSLATION  ACCESS:      22098 HIT:      11404 MISS:      10694
LLC PREFETCH REQUESTED:      65877 ISSUED:      65877 USEFUL:      17154 USELESS:       5341
LLC AVERAGE MISS LATENCY: 532.3 cycles
cpu0_DTLB TOTAL        ACCESS:  156780627 HIT:  155479803 MISS:    1300824
cpu0_DTLB LOAD         ACCESS:  156780627 HIT:  155479803 MISS:    1300824
cpu0_DTLB RFO          ACCESS:          0 HIT:          0 MISS:          0
cpu0_DTLB PREFETCH     ACCESS:          0 HIT:          0 MISS:          0
cpu0_DTLB WRITE        ACCESS:          0 HIT:          0 MISS:          0
cpu0_DTLB TRANSLATION  ACCESS:          0 HIT:          0 MISS:          0
cpu0_DTLB PREFETCH REQUESTED:          0 ISSUED:          0 USEFUL:          0 USELESS:          0
cpu0_DTLB AVERAGE MISS LATENCY: 11.32 cycles
cpu0_ITLB TOTAL        ACCESS:    8933321 HIT:    8734754 MISS:     198567
cpu0_ITLB LOAD         ACCESS:    8933321 HIT:    8734754 MISS:     198567
cpu0_ITLB RFO          ACCESS:          0 HIT:          0 MISS:          0
cpu0_ITLB PREFETCH     ACCESS:          0 HIT:          0 MISS:          0
cpu0_ITLB WRITE        ACCESS:          0 HIT:          0 MISS:          0
cpu0_ITLB TRANSLATION  ACCESS:          0 HIT:          0 MISS:          0
cpu0_ITLB PREFETCH REQUESTED:          0 ISSUED:          0 USEFUL:          0 USELESS:          0
cpu0_ITLB AVERAGE MISS LATENCY: 2.923 cycles
cpu0_L1D TOTAL        ACCESS:  203624949 HIT:  199957845 MISS:    3667104
cpu0_L1D LOAD         ACCESS:  117948306 HIT:  114936584 MISS:    3011722
cpu0_L1D RFO          ACCESS:          0 HIT:          0 MISS:          0
cpu0_L1D PREFETCH     ACCESS:          0 HIT:          0 MISS:          0
cpu0_L1D WRITE        ACCESS:   85648097 HIT:   85019855 MISS:     628242
cpu0_L1D TRANSLATION  ACCESS:      28546 HIT:       1406 MISS:      27140
cpu0_L1D PREFETCH REQUESTED:          0 ISSUED:          0 USEFUL:          0 USELESS:          0
cpu0_L1D AVERAGE MISS LATENCY: 43 cycles
cpu0_L1I TOTAL        ACCESS:   10371929 HIT:    8574547 MISS:    1797382
cpu0_L1I LOAD         ACCESS:   10371929 HIT:    8574547 MISS:    1797382
cpu0_L1I RFO          ACCESS:          0 HIT:          0 MISS:          0
cpu0_L1I PREFETCH     ACCESS:          0 HIT:          0 MISS:          0
cpu0_L1I WRITE        ACCESS:          0 HIT:          0 MISS:          0
cpu0_L1I TRANSLATION  ACCESS:          0 HIT:          0 MISS:          0
cpu0_L1I PREFETCH REQUESTED:          0 ISSUED:          0 USEFUL:          0 USELESS:          0
cpu0_L1I AVERAGE MISS LATENCY: 10.3 cycles
cpu0_L2C TOTAL        ACCESS:    3837152 HIT:    3176811 MISS:     660341
cpu0_L2C LOAD         ACCESS:    3106381 HIT:    2518911 MISS:     587470
cpu0_L2C RFO          ACCESS:     191811 HIT:     144335 MISS:      47476
cpu0_L2C PREFETCH     ACCESS:          0 HIT:          0 MISS:          0
cpu0_L2C WRITE        ACCESS:     511899 HIT:     508602 MISS:       3297
cpu0_L2C TRANSLATION  ACCESS:      27061 HIT:       4963 MISS:      22098
cpu0_L2C PREFETCH REQUESTED:          0 ISSUED:          0 USEFUL:          0 USELESS:          0
cpu0_L2C AVERAGE MISS LATENCY: 227 cycles
cpu0_STLB TOTAL        ACCESS:    1009268 HIT:     982574 MISS:      26694
cpu0_STLB LOAD         ACCESS:    1009268 HIT:     982574 MISS:      26694
cpu0_STLB RFO          ACCESS:          0 HIT:          0 MISS:          0
cpu0_STLB PREFETCH     ACCESS:          0 HIT:          0 MISS:          0
cpu0_STLB WRITE        ACCESS:          0 HIT:          0 MISS:          0
cpu0_STLB TRANSLATION  ACCESS:          0 HIT:          0 MISS:          0
cpu0_STLB PREFETCH REQUESTED:          0 ISSUED:          0 USEFUL:          0 USELESS:          0
cpu0_STLB AVERAGE MISS LATENCY: 328.2 cycles

DRAM Statistics

Channel 0 RQ ROW_BUFFER_HIT:      61433
  ROW_BUFFER_MISS:     219981
 AVG DBUS CONGESTED CYCLE: 3.793
WQ ROW_BUFFER_HIT: Channel 0 
  ROW_BUFFER_MISS:       7415
  FULL:      26517
