WARNING: physical memory size is smaller than virtual memory size.

*** ChampSim Multicore Out-of-Order Simulator ***
Warmup Instructions: 50000000
Simulation Instructions: 600000000
Number of CPUs: 1
Page size: 4096

CPU 0 Tage branch predictor
Off-chip DRAM Size: 4 GiB Channels: 1 Width: 64-bit Data Race: 3200 MT/s
Heartbeat CPU 0 instructions: 10000001 cycles: 2500318 heartbeat IPC: 3.999 cumulative IPC: 3.999 (Simulation time: 00 hr 04 min 21 sec)
Heartbeat CPU 0 instructions: 20000002 cycles: 5037108 heartbeat IPC: 3.942 cumulative IPC: 3.971 (Simulation time: 00 hr 08 min 41 sec)
Heartbeat CPU 0 instructions: 30000002 cycles: 7537108 heartbeat IPC: 4 cumulative IPC: 3.98 (Simulation time: 00 hr 12 min 56 sec)
Heartbeat CPU 0 instructions: 40000002 cycles: 10037108 heartbeat IPC: 4 cumulative IPC: 3.985 (Simulation time: 00 hr 17 min 12 sec)
Heartbeat CPU 0 instructions: 50000002 cycles: 12537108 heartbeat IPC: 4 cumulative IPC: 3.988 (Simulation time: 00 hr 21 min 11 sec)
Warmup finished CPU 0 instructions: 50000002 cycles: 12537109 cumulative IPC: 3.988 (Simulation time: 00 hr 21 min 11 sec)
Warmup complete CPU 0 instructions: 50000002 cycles: 12537109 cumulative IPC: 3.988 (Simulation time: 00 hr 21 min 11 sec)
Heartbeat CPU 0 instructions: 60000001 cycles: 15511744 heartbeat IPC: 3.362 cumulative IPC: 3.362 (Simulation time: 00 hr 26 min 07 sec)
Heartbeat CPU 0 instructions: 70000004 cycles: 18586601 heartbeat IPC: 3.252 cumulative IPC: 3.306 (Simulation time: 00 hr 31 min 17 sec)
Heartbeat CPU 0 instructions: 80000001 cycles: 21635425 heartbeat IPC: 3.28 cumulative IPC: 3.297 (Simulation time: 00 hr 36 min 14 sec)
Heartbeat CPU 0 instructions: 90000001 cycles: 24585406 heartbeat IPC: 3.39 cumulative IPC: 3.32 (Simulation time: 00 hr 41 min 10 sec)
Heartbeat CPU 0 instructions: 100000000 cycles: 27497641 heartbeat IPC: 3.434 cumulative IPC: 3.342 (Simulation time: 00 hr 45 min 56 sec)
Heartbeat CPU 0 instructions: 110000000 cycles: 30451153 heartbeat IPC: 3.386 cumulative IPC: 3.349 (Simulation time: 00 hr 50 min 48 sec)
Heartbeat CPU 0 instructions: 120000001 cycles: 33425684 heartbeat IPC: 3.362 cumulative IPC: 3.351 (Simulation time: 00 hr 55 min 37 sec)
Heartbeat CPU 0 instructions: 130000001 cycles: 36290606 heartbeat IPC: 3.49 cumulative IPC: 3.368 (Simulation time: 01 hr 00 min 19 sec)
Heartbeat CPU 0 instructions: 140000001 cycles: 39348524 heartbeat IPC: 3.27 cumulative IPC: 3.357 (Simulation time: 01 hr 04 min 53 sec)
Heartbeat CPU 0 instructions: 150000001 cycles: 42365728 heartbeat IPC: 3.314 cumulative IPC: 3.352 (Simulation time: 01 hr 09 min 17 sec)
Heartbeat CPU 0 instructions: 160000004 cycles: 45388272 heartbeat IPC: 3.308 cumulative IPC: 3.348 (Simulation time: 01 hr 13 min 32 sec)
Heartbeat CPU 0 instructions: 170000000 cycles: 51778259 heartbeat IPC: 1.565 cumulative IPC: 3.058 (Simulation time: 01 hr 19 min 31 sec)
Heartbeat CPU 0 instructions: 180000004 cycles: 56765036 heartbeat IPC: 2.005 cumulative IPC: 2.939 (Simulation time: 01 hr 24 min 42 sec)
Heartbeat CPU 0 instructions: 190000001 cycles: 62184647 heartbeat IPC: 1.845 cumulative IPC: 2.82 (Simulation time: 01 hr 29 min 56 sec)
Heartbeat CPU 0 instructions: 200000004 cycles: 65054532 heartbeat IPC: 3.484 cumulative IPC: 2.856 (Simulation time: 01 hr 33 min 40 sec)
Heartbeat CPU 0 instructions: 210000001 cycles: 67936941 heartbeat IPC: 3.469 cumulative IPC: 2.888 (Simulation time: 01 hr 37 min 25 sec)
Heartbeat CPU 0 instructions: 220000000 cycles: 70792740 heartbeat IPC: 3.502 cumulative IPC: 2.918 (Simulation time: 01 hr 41 min 10 sec)
Heartbeat CPU 0 instructions: 230000002 cycles: 73710050 heartbeat IPC: 3.428 cumulative IPC: 2.942 (Simulation time: 01 hr 44 min 56 sec)
Heartbeat CPU 0 instructions: 240000003 cycles: 76694210 heartbeat IPC: 3.351 cumulative IPC: 2.961 (Simulation time: 01 hr 48 min 45 sec)
Heartbeat CPU 0 instructions: 250000000 cycles: 79660654 heartbeat IPC: 3.371 cumulative IPC: 2.98 (Simulation time: 01 hr 52 min 33 sec)
Heartbeat CPU 0 instructions: 260000002 cycles: 82588614 heartbeat IPC: 3.415 cumulative IPC: 2.998 (Simulation time: 01 hr 56 min 21 sec)
Heartbeat CPU 0 instructions: 270000002 cycles: 85463833 heartbeat IPC: 3.478 cumulative IPC: 3.017 (Simulation time: 02 hr 00 min 08 sec)
Heartbeat CPU 0 instructions: 280000002 cycles: 88339354 heartbeat IPC: 3.478 cumulative IPC: 3.034 (Simulation time: 02 hr 04 min 00 sec)
Heartbeat CPU 0 instructions: 290000002 cycles: 91281449 heartbeat IPC: 3.399 cumulative IPC: 3.048 (Simulation time: 02 hr 08 min 10 sec)
Heartbeat CPU 0 instructions: 300000003 cycles: 94167339 heartbeat IPC: 3.465 cumulative IPC: 3.063 (Simulation time: 02 hr 12 min 24 sec)
Heartbeat CPU 0 instructions: 310000001 cycles: 97178222 heartbeat IPC: 3.321 cumulative IPC: 3.072 (Simulation time: 02 hr 16 min 37 sec)
Heartbeat CPU 0 instructions: 320000003 cycles: 100182484 heartbeat IPC: 3.329 cumulative IPC: 3.081 (Simulation time: 02 hr 20 min 52 sec)
Heartbeat CPU 0 instructions: 330000003 cycles: 103165707 heartbeat IPC: 3.352 cumulative IPC: 3.09 (Simulation time: 02 hr 25 min 02 sec)
Heartbeat CPU 0 instructions: 340000000 cycles: 109807165 heartbeat IPC: 1.506 cumulative IPC: 2.981 (Simulation time: 02 hr 31 min 25 sec)
Heartbeat CPU 0 instructions: 350000000 cycles: 115018663 heartbeat IPC: 1.919 cumulative IPC: 2.927 (Simulation time: 02 hr 37 min 05 sec)
Heartbeat CPU 0 instructions: 360000004 cycles: 120894686 heartbeat IPC: 1.702 cumulative IPC: 2.861 (Simulation time: 02 hr 43 min 04 sec)
Heartbeat CPU 0 instructions: 370000000 cycles: 123793362 heartbeat IPC: 3.45 cumulative IPC: 2.876 (Simulation time: 02 hr 47 min 11 sec)
Heartbeat CPU 0 instructions: 380000003 cycles: 126643452 heartbeat IPC: 3.509 cumulative IPC: 2.892 (Simulation time: 02 hr 51 min 16 sec)
Heartbeat CPU 0 instructions: 390000002 cycles: 129573870 heartbeat IPC: 3.412 cumulative IPC: 2.905 (Simulation time: 02 hr 55 min 23 sec)
Heartbeat CPU 0 instructions: 400000004 cycles: 132449201 heartbeat IPC: 3.478 cumulative IPC: 2.919 (Simulation time: 02 hr 59 min 30 sec)
Heartbeat CPU 0 instructions: 410000002 cycles: 135329252 heartbeat IPC: 3.472 cumulative IPC: 2.932 (Simulation time: 03 hr 03 min 36 sec)
Heartbeat CPU 0 instructions: 420000003 cycles: 138371671 heartbeat IPC: 3.287 cumulative IPC: 2.94 (Simulation time: 03 hr 07 min 47 sec)
Heartbeat CPU 0 instructions: 430000001 cycles: 141351477 heartbeat IPC: 3.356 cumulative IPC: 2.95 (Simulation time: 03 hr 11 min 57 sec)
Heartbeat CPU 0 instructions: 440000004 cycles: 144444188 heartbeat IPC: 3.233 cumulative IPC: 2.957 (Simulation time: 03 hr 16 min 10 sec)
Heartbeat CPU 0 instructions: 450000002 cycles: 147333282 heartbeat IPC: 3.461 cumulative IPC: 2.967 (Simulation time: 03 hr 20 min 17 sec)
Heartbeat CPU 0 instructions: 460000000 cycles: 150246624 heartbeat IPC: 3.432 cumulative IPC: 2.977 (Simulation time: 03 hr 24 min 21 sec)
Heartbeat CPU 0 instructions: 470000001 cycles: 153074779 heartbeat IPC: 3.536 cumulative IPC: 2.989 (Simulation time: 03 hr 28 min 16 sec)
Heartbeat CPU 0 instructions: 480000003 cycles: 156127174 heartbeat IPC: 3.276 cumulative IPC: 2.995 (Simulation time: 03 hr 32 min 14 sec)
Heartbeat CPU 0 instructions: 490000004 cycles: 158952217 heartbeat IPC: 3.54 cumulative IPC: 3.005 (Simulation time: 03 hr 36 min 01 sec)
Heartbeat CPU 0 instructions: 500000004 cycles: 161930526 heartbeat IPC: 3.358 cumulative IPC: 3.012 (Simulation time: 03 hr 39 min 34 sec)
Heartbeat CPU 0 instructions: 510000003 cycles: 164980760 heartbeat IPC: 3.278 cumulative IPC: 3.018 (Simulation time: 03 hr 43 min 15 sec)
Heartbeat CPU 0 instructions: 520000001 cycles: 167858757 heartbeat IPC: 3.475 cumulative IPC: 3.026 (Simulation time: 03 hr 46 min 53 sec)
Heartbeat CPU 0 instructions: 530000001 cycles: 170879322 heartbeat IPC: 3.311 cumulative IPC: 3.031 (Simulation time: 03 hr 50 min 32 sec)
Heartbeat CPU 0 instructions: 540000000 cycles: 173827258 heartbeat IPC: 3.392 cumulative IPC: 3.038 (Simulation time: 03 hr 54 min 08 sec)
Heartbeat CPU 0 instructions: 550000001 cycles: 176809086 heartbeat IPC: 3.354 cumulative IPC: 3.044 (Simulation time: 03 hr 57 min 45 sec)
Heartbeat CPU 0 instructions: 560000000 cycles: 179923890 heartbeat IPC: 3.21 cumulative IPC: 3.047 (Simulation time: 04 hr 01 min 25 sec)
Heartbeat CPU 0 instructions: 570000004 cycles: 185212559 heartbeat IPC: 1.891 cumulative IPC: 3.011 (Simulation time: 04 hr 06 min 09 sec)
Heartbeat CPU 0 instructions: 580000003 cycles: 190960227 heartbeat IPC: 1.74 cumulative IPC: 2.97 (Simulation time: 04 hr 11 min 18 sec)
Heartbeat CPU 0 instructions: 590000002 cycles: 197683084 heartbeat IPC: 1.487 cumulative IPC: 2.917 (Simulation time: 04 hr 16 min 57 sec)
Heartbeat CPU 0 instructions: 600000004 cycles: 200665328 heartbeat IPC: 3.353 cumulative IPC: 2.924 (Simulation time: 04 hr 20 min 33 sec)
Heartbeat CPU 0 instructions: 610000002 cycles: 203578162 heartbeat IPC: 3.433 cumulative IPC: 2.931 (Simulation time: 04 hr 24 min 08 sec)
Heartbeat CPU 0 instructions: 620000001 cycles: 206311507 heartbeat IPC: 3.659 cumulative IPC: 2.942 (Simulation time: 04 hr 27 min 42 sec)
Heartbeat CPU 0 instructions: 630000002 cycles: 209226086 heartbeat IPC: 3.431 cumulative IPC: 2.949 (Simulation time: 04 hr 31 min 21 sec)
Heartbeat CPU 0 instructions: 640000004 cycles: 212155639 heartbeat IPC: 3.413 cumulative IPC: 2.956 (Simulation time: 04 hr 35 min 01 sec)
Heartbeat CPU 0 instructions: 650000000 cycles: 214884801 heartbeat IPC: 3.664 cumulative IPC: 2.965 (Simulation time: 04 hr 38 min 26 sec)
Simulation finished CPU 0 instructions: 600000001 cycles: 202347694 cumulative IPC: 2.965 (Simulation time: 04 hr 38 min 26 sec)
Simulation complete CPU 0 instructions: 600000001 cycles: 202347694 cumulative IPC: 2.965 (Simulation time: 04 hr 38 min 26 sec)

ChampSim completed all CPUs

=== Simulation ===
CPU 0 runs traces/400.perlbench-41B.champsimtrace.xz
Region of Interest Statistics

CPU 0 cumulative IPC: 2.965 instructions: 600000001 cycles: 202347694
CPU 0 Branch Prediction Accuracy: 99.19% MPKI: 1.684 Average ROB Occupancy at Mispredict: 101.4
Branch type MPKI
BRANCH_DIRECT_JUMP: 0.0123
BRANCH_INDIRECT: 0.323
BRANCH_CONDITIONAL: 1.14
BRANCH_DIRECT_CALL: 0.0043
BRANCH_INDIRECT_CALL: 0.2
BRANCH_RETURN: 0.00828

LLC TOTAL        ACCESS:     593743 HIT:     450997 MISS:     142746
LLC LOAD         ACCESS:     403758 HIT:     301959 MISS:     101799
LLC RFO          ACCESS:      32549 HIT:      23841 MISS:       8708
LLC PREFETCH     ACCESS:      52881 HIT:      40753 MISS:      12128
LLC WRITE        ACCESS:      85401 HIT:      76481 MISS:       8920
LLC TRANSLATION  ACCESS:      19154 HIT:       7963 MISS:      11191
LLC PREFETCH REQUESTED:      52881 ISSUED:      52881 USEFUL:       7123 USELESS:       3481
LLC AVERAGE MISS LATENCY: 567.1 cycles
cpu0_DTLB TOTAL        ACCESS:  129765587 HIT:  129061363 MISS:     704224
cpu0_DTLB LOAD         ACCESS:  129765587 HIT:  129061363 MISS:     704224
cpu0_DTLB RFO          ACCESS:          0 HIT:          0 MISS:          0
cpu0_DTLB PREFETCH     ACCESS:          0 HIT:          0 MISS:          0
cpu0_DTLB WRITE        ACCESS:          0 HIT:          0 MISS:          0
cpu0_DTLB TRANSLATION  ACCESS:          0 HIT:          0 MISS:          0
cpu0_DTLB PREFETCH REQUESTED:          0 ISSUED:          0 USEFUL:          0 USELESS:          0
cpu0_DTLB AVERAGE MISS LATENCY: 14.46 cycles
cpu0_ITLB TOTAL        ACCESS:    4873279 HIT:    4811205 MISS:      62074
cpu0_ITLB LOAD         ACCESS:    4873279 HIT:    4811205 MISS:      62074
cpu0_ITLB RFO          ACCESS:          0 HIT:          0 MISS:          0
cpu0_ITLB PREFETCH     ACCESS:          0 HIT:          0 MISS:          0
cpu0_ITLB WRITE        ACCESS:          0 HIT:          0 MISS:          0
cpu0_ITLB TRANSLATION  ACCESS:          0 HIT:          0 MISS:          0
cpu0_ITLB PREFETCH REQUESTED:          0 ISSUED:          0 USEFUL:          0 USELESS:          0
cpu0_ITLB AVERAGE MISS LATENCY: 5.097 cycles
cpu0_L1D TOTAL        ACCESS:  174372203 HIT:  172628360 MISS:    1743843
cpu0_L1D LOAD         ACCESS:   91348350 HIT:   89990316 MISS:    1358034
cpu0_L1D RFO          ACCESS:          0 HIT:          0 MISS:          0
cpu0_L1D PREFETCH     ACCESS:          0 HIT:          0 MISS:          0
cpu0_L1D WRITE        ACCESS:   82999390 HIT:   82636993 MISS:     362397
cpu0_L1D TRANSLATION  ACCESS:      24463 HIT:       1051 MISS:      23412
cpu0_L1D PREFETCH REQUESTED:          0 ISSUED:          0 USEFUL:          0 USELESS:          0
cpu0_L1D AVERAGE MISS LATENCY: 45.53 cycles
cpu0_L1I TOTAL        ACCESS:    5652507 HIT:    4848257 MISS:     804250
cpu0_L1I LOAD         ACCESS:    5652507 HIT:    4848257 MISS:     804250
cpu0_L1I RFO          ACCESS:          0 HIT:          0 MISS:          0
cpu0_L1I PREFETCH     ACCESS:          0 HIT:          0 MISS:          0
cpu0_L1I WRITE        ACCESS:          0 HIT:          0 MISS:          0
cpu0_L1I TRANSLATION  ACCESS:          0 HIT:          0 MISS:          0
cpu0_L1I PREFETCH REQUESTED:          0 ISSUED:          0 USEFUL:          0 USELESS:          0
cpu0_L1I AVERAGE MISS LATENCY: 13.01 cycles
cpu0_L2C TOTAL        ACCESS:    1668233 HIT:    1210929 MISS:     457304
cpu0_L2C LOAD         ACCESS:    1315317 HIT:     911559 MISS:     403758
cpu0_L2C RFO          ACCESS:      89566 HIT:      57016 MISS:      32550
cpu0_L2C PREFETCH     ACCESS:          0 HIT:          0 MISS:          0
cpu0_L2C WRITE        ACCESS:     240024 HIT:     238182 MISS:       1842
cpu0_L2C TRANSLATION  ACCESS:      23326 HIT:       4172 MISS:      19154
cpu0_L2C PREFETCH REQUESTED:          0 ISSUED:          0 USEFUL:          0 USELESS:          0
cpu0_L2C AVERAGE MISS LATENCY: 179.5 cycles
cpu0_STLB TOTAL        ACCESS:     508720 HIT:     485935 MISS:      22785
cpu0_STLB LOAD         ACCESS:     508720 HIT:     485935 MISS:      22785
cpu0_STLB RFO          ACCESS:          0 HIT:          0 MISS:          0
cpu0_STLB PREFETCH     ACCESS:          0 HIT:          0 MISS:          0
cpu0_STLB WRITE        ACCESS:          0 HIT:          0 MISS:          0
cpu0_STLB TRANSLATION  ACCESS:          0 HIT:          0 MISS:          0
cpu0_STLB PREFETCH REQUESTED:          0 ISSUED:          0 USEFUL:          0 USELESS:          0
cpu0_STLB AVERAGE MISS LATENCY: 334.9 cycles

DRAM Statistics

Channel 0 RQ ROW_BUFFER_HIT:      24026
  ROW_BUFFER_MISS:     107774
 AVG DBUS CONGESTED CYCLE: 3.816
WQ ROW_BUFFER_HIT: Channel 0 
  ROW_BUFFER_MISS:       5417
  FULL:      13829
