WARNING: physical memory size is smaller than virtual memory size.

*** ChampSim Multicore Out-of-Order Simulator ***
Warmup Instructions: 50000000
Simulation Instructions: 600000000
Number of CPUs: 1
Page size: 4096

CPU 0 Tage branch predictor
Off-chip DRAM Size: 4 GiB Channels: 1 Width: 64-bit Data Race: 3200 MT/s
Heartbeat CPU 0 instructions: 10000001 cycles: 2500318 heartbeat IPC: 3.999 cumulative IPC: 3.999 (Simulation time: 00 hr 00 min 44 sec)
Heartbeat CPU 0 instructions: 20000002 cycles: 5037121 heartbeat IPC: 3.942 cumulative IPC: 3.971 (Simulation time: 00 hr 01 min 27 sec)
Heartbeat CPU 0 instructions: 30000002 cycles: 7537121 heartbeat IPC: 4 cumulative IPC: 3.98 (Simulation time: 00 hr 02 min 12 sec)
Heartbeat CPU 0 instructions: 40000002 cycles: 10037121 heartbeat IPC: 4 cumulative IPC: 3.985 (Simulation time: 00 hr 02 min 54 sec)
Heartbeat CPU 0 instructions: 50000002 cycles: 12537121 heartbeat IPC: 4 cumulative IPC: 3.988 (Simulation time: 00 hr 03 min 37 sec)
Warmup finished CPU 0 instructions: 50000002 cycles: 12537122 cumulative IPC: 3.988 (Simulation time: 00 hr 03 min 37 sec)
Warmup complete CPU 0 instructions: 50000002 cycles: 12537122 cumulative IPC: 3.988 (Simulation time: 00 hr 03 min 37 sec)
Heartbeat CPU 0 instructions: 60000001 cycles: 15552734 heartbeat IPC: 3.316 cumulative IPC: 3.316 (Simulation time: 00 hr 04 min 32 sec)
Heartbeat CPU 0 instructions: 70000004 cycles: 18645215 heartbeat IPC: 3.234 cumulative IPC: 3.274 (Simulation time: 00 hr 05 min 24 sec)
Heartbeat CPU 0 instructions: 80000001 cycles: 21724866 heartbeat IPC: 3.247 cumulative IPC: 3.265 (Simulation time: 00 hr 06 min 13 sec)
Heartbeat CPU 0 instructions: 90000001 cycles: 24689528 heartbeat IPC: 3.373 cumulative IPC: 3.292 (Simulation time: 00 hr 07 min 03 sec)
Heartbeat CPU 0 instructions: 100000000 cycles: 27622231 heartbeat IPC: 3.41 cumulative IPC: 3.315 (Simulation time: 00 hr 07 min 51 sec)
Heartbeat CPU 0 instructions: 110000000 cycles: 30577490 heartbeat IPC: 3.384 cumulative IPC: 3.326 (Simulation time: 00 hr 08 min 38 sec)
Heartbeat CPU 0 instructions: 120000001 cycles: 33573773 heartbeat IPC: 3.337 cumulative IPC: 3.328 (Simulation time: 00 hr 09 min 25 sec)
Heartbeat CPU 0 instructions: 130000001 cycles: 36452781 heartbeat IPC: 3.473 cumulative IPC: 3.345 (Simulation time: 00 hr 10 min 12 sec)
Heartbeat CPU 0 instructions: 140000001 cycles: 39536695 heartbeat IPC: 3.243 cumulative IPC: 3.333 (Simulation time: 00 hr 11 min 01 sec)
Heartbeat CPU 0 instructions: 150000001 cycles: 42576934 heartbeat IPC: 3.289 cumulative IPC: 3.329 (Simulation time: 00 hr 11 min 50 sec)
Heartbeat CPU 0 instructions: 160000004 cycles: 45627183 heartbeat IPC: 3.278 cumulative IPC: 3.324 (Simulation time: 00 hr 12 min 38 sec)
Heartbeat CPU 0 instructions: 170000004 cycles: 52851073 heartbeat IPC: 1.384 cumulative IPC: 2.977 (Simulation time: 00 hr 13 min 54 sec)
Heartbeat CPU 0 instructions: 180000004 cycles: 60538620 heartbeat IPC: 1.301 cumulative IPC: 2.708 (Simulation time: 00 hr 15 min 13 sec)
Heartbeat CPU 0 instructions: 190000001 cycles: 68427886 heartbeat IPC: 1.268 cumulative IPC: 2.505 (Simulation time: 00 hr 16 min 34 sec)
Heartbeat CPU 0 instructions: 200000004 cycles: 71412677 heartbeat IPC: 3.35 cumulative IPC: 2.548 (Simulation time: 00 hr 17 min 22 sec)
Heartbeat CPU 0 instructions: 210000001 cycles: 74384417 heartbeat IPC: 3.365 cumulative IPC: 2.587 (Simulation time: 00 hr 18 min 10 sec)
Heartbeat CPU 0 instructions: 220000000 cycles: 77283201 heartbeat IPC: 3.45 cumulative IPC: 2.626 (Simulation time: 00 hr 18 min 57 sec)
Heartbeat CPU 0 instructions: 230000002 cycles: 80333759 heartbeat IPC: 3.278 cumulative IPC: 2.655 (Simulation time: 00 hr 19 min 47 sec)
Heartbeat CPU 0 instructions: 240000003 cycles: 83379062 heartbeat IPC: 3.284 cumulative IPC: 2.682 (Simulation time: 00 hr 20 min 38 sec)
Heartbeat CPU 0 instructions: 250000000 cycles: 86428616 heartbeat IPC: 3.279 cumulative IPC: 2.707 (Simulation time: 00 hr 21 min 26 sec)
Heartbeat CPU 0 instructions: 260000002 cycles: 89416646 heartbeat IPC: 3.347 cumulative IPC: 2.732 (Simulation time: 00 hr 22 min 14 sec)
Heartbeat CPU 0 instructions: 270000002 cycles: 92345904 heartbeat IPC: 3.414 cumulative IPC: 2.757 (Simulation time: 00 hr 23 min 01 sec)
Heartbeat CPU 0 instructions: 280000002 cycles: 95242032 heartbeat IPC: 3.453 cumulative IPC: 2.781 (Simulation time: 00 hr 23 min 47 sec)
Heartbeat CPU 0 instructions: 290000002 cycles: 98218001 heartbeat IPC: 3.36 cumulative IPC: 2.801 (Simulation time: 00 hr 24 min 35 sec)
Heartbeat CPU 0 instructions: 300000003 cycles: 101139093 heartbeat IPC: 3.423 cumulative IPC: 2.822 (Simulation time: 00 hr 25 min 24 sec)
Heartbeat CPU 0 instructions: 310000001 cycles: 104214659 heartbeat IPC: 3.251 cumulative IPC: 2.836 (Simulation time: 00 hr 26 min 13 sec)
Heartbeat CPU 0 instructions: 320000003 cycles: 107248532 heartbeat IPC: 3.296 cumulative IPC: 2.851 (Simulation time: 00 hr 27 min 02 sec)
Heartbeat CPU 0 instructions: 330000003 cycles: 110265343 heartbeat IPC: 3.315 cumulative IPC: 2.865 (Simulation time: 00 hr 27 min 51 sec)
Heartbeat CPU 0 instructions: 340000000 cycles: 117748662 heartbeat IPC: 1.336 cumulative IPC: 2.756 (Simulation time: 00 hr 29 min 08 sec)
Heartbeat CPU 0 instructions: 350000000 cycles: 125856647 heartbeat IPC: 1.233 cumulative IPC: 2.647 (Simulation time: 00 hr 30 min 30 sec)
Heartbeat CPU 0 instructions: 360000004 cycles: 133963480 heartbeat IPC: 1.234 cumulative IPC: 2.553 (Simulation time: 00 hr 31 min 52 sec)
Heartbeat CPU 0 instructions: 370000000 cycles: 136935163 heartbeat IPC: 3.365 cumulative IPC: 2.572 (Simulation time: 00 hr 32 min 41 sec)
Heartbeat CPU 0 instructions: 380000003 cycles: 139869194 heartbeat IPC: 3.408 cumulative IPC: 2.592 (Simulation time: 00 hr 33 min 30 sec)
Heartbeat CPU 0 instructions: 390000002 cycles: 142857748 heartbeat IPC: 3.346 cumulative IPC: 2.609 (Simulation time: 00 hr 34 min 17 sec)
Heartbeat CPU 0 instructions: 400000004 cycles: 145762464 heartbeat IPC: 3.443 cumulative IPC: 2.627 (Simulation time: 00 hr 35 min 05 sec)
Heartbeat CPU 0 instructions: 410000002 cycles: 148725695 heartbeat IPC: 3.375 cumulative IPC: 2.643 (Simulation time: 00 hr 35 min 52 sec)
Heartbeat CPU 0 instructions: 420000003 cycles: 151839236 heartbeat IPC: 3.212 cumulative IPC: 2.656 (Simulation time: 00 hr 36 min 41 sec)
Heartbeat CPU 0 instructions: 430000001 cycles: 154868091 heartbeat IPC: 3.302 cumulative IPC: 2.67 (Simulation time: 00 hr 37 min 29 sec)
Heartbeat CPU 0 instructions: 440000004 cycles: 158022441 heartbeat IPC: 3.17 cumulative IPC: 2.681 (Simulation time: 00 hr 38 min 17 sec)
Heartbeat CPU 0 instructions: 450000002 cycles: 160959519 heartbeat IPC: 3.405 cumulative IPC: 2.695 (Simulation time: 00 hr 39 min 03 sec)
Heartbeat CPU 0 instructions: 460000000 cycles: 163903949 heartbeat IPC: 3.396 cumulative IPC: 2.709 (Simulation time: 00 hr 39 min 48 sec)
Heartbeat CPU 0 instructions: 470000001 cycles: 166767703 heartbeat IPC: 3.492 cumulative IPC: 2.723 (Simulation time: 00 hr 40 min 34 sec)
Heartbeat CPU 0 instructions: 480000003 cycles: 169830393 heartbeat IPC: 3.265 cumulative IPC: 2.734 (Simulation time: 00 hr 41 min 19 sec)
Heartbeat CPU 0 instructions: 490000004 cycles: 172666424 heartbeat IPC: 3.526 cumulative IPC: 2.748 (Simulation time: 00 hr 42 min 05 sec)
Heartbeat CPU 0 instructions: 500000004 cycles: 175661779 heartbeat IPC: 3.339 cumulative IPC: 2.759 (Simulation time: 00 hr 42 min 51 sec)
Heartbeat CPU 0 instructions: 510000003 cycles: 178700683 heartbeat IPC: 3.291 cumulative IPC: 2.768 (Simulation time: 00 hr 43 min 41 sec)
Heartbeat CPU 0 instructions: 520000001 cycles: 181605181 heartbeat IPC: 3.443 cumulative IPC: 2.78 (Simulation time: 00 hr 44 min 32 sec)
Heartbeat CPU 0 instructions: 530000001 cycles: 184637481 heartbeat IPC: 3.298 cumulative IPC: 2.789 (Simulation time: 00 hr 45 min 20 sec)
Heartbeat CPU 0 instructions: 540000000 cycles: 187610240 heartbeat IPC: 3.364 cumulative IPC: 2.799 (Simulation time: 00 hr 46 min 07 sec)
Heartbeat CPU 0 instructions: 550000001 cycles: 190607519 heartbeat IPC: 3.336 cumulative IPC: 2.808 (Simulation time: 00 hr 46 min 55 sec)
Heartbeat CPU 0 instructions: 560000000 cycles: 193723300 heartbeat IPC: 3.209 cumulative IPC: 2.815 (Simulation time: 00 hr 47 min 43 sec)
Heartbeat CPU 0 instructions: 570000004 cycles: 198760848 heartbeat IPC: 1.985 cumulative IPC: 2.792 (Simulation time: 00 hr 48 min 43 sec)
Heartbeat CPU 0 instructions: 580000003 cycles: 207577361 heartbeat IPC: 1.134 cumulative IPC: 2.717 (Simulation time: 00 hr 50 min 08 sec)
Heartbeat CPU 0 instructions: 590000002 cycles: 217774209 heartbeat IPC: 0.9807 cumulative IPC: 2.631 (Simulation time: 00 hr 51 min 41 sec)
Heartbeat CPU 0 instructions: 600000004 cycles: 220819967 heartbeat IPC: 3.283 cumulative IPC: 2.641 (Simulation time: 00 hr 52 min 29 sec)
Heartbeat CPU 0 instructions: 610000002 cycles: 223793937 heartbeat IPC: 3.363 cumulative IPC: 2.651 (Simulation time: 00 hr 53 min 19 sec)
Heartbeat CPU 0 instructions: 620000001 cycles: 226576751 heartbeat IPC: 3.593 cumulative IPC: 2.663 (Simulation time: 00 hr 54 min 05 sec)
Heartbeat CPU 0 instructions: 630000002 cycles: 229565058 heartbeat IPC: 3.346 cumulative IPC: 2.672 (Simulation time: 00 hr 54 min 54 sec)
Heartbeat CPU 0 instructions: 640000004 cycles: 232515395 heartbeat IPC: 3.389 cumulative IPC: 2.682 (Simulation time: 00 hr 55 min 43 sec)
Heartbeat CPU 0 instructions: 650000000 cycles: 235271286 heartbeat IPC: 3.629 cumulative IPC: 2.694 (Simulation time: 00 hr 56 min 33 sec)
Simulation finished CPU 0 instructions: 600000001 cycles: 222734166 cumulative IPC: 2.694 (Simulation time: 00 hr 56 min 33 sec)
Simulation complete CPU 0 instructions: 600000001 cycles: 222734166 cumulative IPC: 2.694 (Simulation time: 00 hr 56 min 33 sec)

ChampSim completed all CPUs

=== Simulation ===
CPU 0 runs traces/400.perlbench-41B.champsimtrace.xz
Region of Interest Statistics

CPU 0 cumulative IPC: 2.694 instructions: 600000001 cycles: 222734166
CPU 0 Branch Prediction Accuracy: 99.19% MPKI: 1.684 Average ROB Occupancy at Mispredict: 101.9
Branch type MPKI
BRANCH_DIRECT_JUMP: 0.0123
BRANCH_INDIRECT: 0.323
BRANCH_CONDITIONAL: 1.14
BRANCH_DIRECT_CALL: 0.0043
BRANCH_INDIRECT_CALL: 0.2
BRANCH_RETURN: 0.00828

LLC TOTAL        ACCESS:     938884 HIT:     543463 MISS:     395421
LLC LOAD         ACCESS:     401363 HIT:     225067 MISS:     176296
LLC RFO          ACCESS:      32449 HIT:      19024 MISS:      13425
LLC PREFETCH     ACCESS:     401363 HIT:     218594 MISS:     182769
LLC WRITE        ACCESS:      84546 HIT:      78902 MISS:       5644
LLC TRANSLATION  ACCESS:      19163 HIT:       1876 MISS:      17287
LLC PREFETCH REQUESTED:     401363 ISSUED:     401363 USEFUL:      69688 USELESS:      61628
LLC AVERAGE MISS LATENCY: 620.5 cycles
cpu0_DTLB TOTAL        ACCESS:  129770258 HIT:  129065534 MISS:     704724
cpu0_DTLB LOAD         ACCESS:  129770258 HIT:  129065534 MISS:     704724
cpu0_DTLB RFO          ACCESS:          0 HIT:          0 MISS:          0
cpu0_DTLB PREFETCH     ACCESS:          0 HIT:          0 MISS:          0
cpu0_DTLB WRITE        ACCESS:          0 HIT:          0 MISS:          0
cpu0_DTLB TRANSLATION  ACCESS:          0 HIT:          0 MISS:          0
cpu0_DTLB PREFETCH REQUESTED:          0 ISSUED:          0 USEFUL:          0 USELESS:          0
cpu0_DTLB AVERAGE MISS LATENCY: 22.84 cycles
cpu0_ITLB TOTAL        ACCESS:    4869838 HIT:    4807639 MISS:      62199
cpu0_ITLB LOAD         ACCESS:    4869838 HIT:    4807639 MISS:      62199
cpu0_ITLB RFO          ACCESS:          0 HIT:          0 MISS:          0
cpu0_ITLB PREFETCH     ACCESS:          0 HIT:          0 MISS:          0
cpu0_ITLB WRITE        ACCESS:          0 HIT:          0 MISS:          0
cpu0_ITLB TRANSLATION  ACCESS:          0 HIT:          0 MISS:          0
cpu0_ITLB PREFETCH REQUESTED:          0 ISSUED:          0 USEFUL:          0 USELESS:          0
cpu0_ITLB AVERAGE MISS LATENCY: 7.411 cycles
cpu0_L1D TOTAL        ACCESS:  174363801 HIT:  172565951 MISS:    1797850
cpu0_L1D LOAD         ACCESS:   91341938 HIT:   89941693 MISS:    1400245
cpu0_L1D RFO          ACCESS:          0 HIT:          0 MISS:          0
cpu0_L1D PREFETCH     ACCESS:          0 HIT:          0 MISS:          0
cpu0_L1D WRITE        ACCESS:   82997394 HIT:   82623202 MISS:     374192
cpu0_L1D TRANSLATION  ACCESS:      24469 HIT:       1056 MISS:      23413
cpu0_L1D PREFETCH REQUESTED:          0 ISSUED:          0 USEFUL:          0 USELESS:          0
cpu0_L1D AVERAGE MISS LATENCY: 83.96 cycles
cpu0_L1I TOTAL        ACCESS:    5649711 HIT:    4845429 MISS:     804282
cpu0_L1I LOAD         ACCESS:    5649711 HIT:    4845429 MISS:     804282
cpu0_L1I RFO          ACCESS:          0 HIT:          0 MISS:          0
cpu0_L1I PREFETCH     ACCESS:          0 HIT:          0 MISS:          0
cpu0_L1I WRITE        ACCESS:          0 HIT:          0 MISS:          0
cpu0_L1I TRANSLATION  ACCESS:          0 HIT:          0 MISS:          0
cpu0_L1I PREFETCH REQUESTED:          0 ISSUED:          0 USEFUL:          0 USELESS:          0
cpu0_L1I AVERAGE MISS LATENCY: 10.3 cycles
cpu0_L2C TOTAL        ACCESS:    1667838 HIT:    1213082 MISS:     454756
cpu0_L2C LOAD         ACCESS:    1315186 HIT:     913823 MISS:     401363
cpu0_L2C RFO          ACCESS:      89613 HIT:      57164 MISS:      32449
cpu0_L2C PREFETCH     ACCESS:          0 HIT:          0 MISS:          0
cpu0_L2C WRITE        ACCESS:     239716 HIT:     237935 MISS:       1781
cpu0_L2C TRANSLATION  ACCESS:      23323 HIT:       4160 MISS:      19163
cpu0_L2C PREFETCH REQUESTED:          0 ISSUED:          0 USEFUL:          0 USELESS:          0
cpu0_L2C AVERAGE MISS LATENCY: 343.2 cycles
cpu0_STLB TOTAL        ACCESS:     508687 HIT:     485901 MISS:      22786
cpu0_STLB LOAD         ACCESS:     508687 HIT:     485901 MISS:      22786
cpu0_STLB RFO          ACCESS:          0 HIT:          0 MISS:          0
cpu0_STLB PREFETCH     ACCESS:          0 HIT:          0 MISS:          0
cpu0_STLB WRITE        ACCESS:          0 HIT:          0 MISS:          0
cpu0_STLB TRANSLATION  ACCESS:          0 HIT:          0 MISS:          0
cpu0_STLB PREFETCH REQUESTED:          0 ISSUED:          0 USEFUL:          0 USELESS:          0
cpu0_STLB AVERAGE MISS LATENCY: 620.4 cycles

DRAM Statistics

Channel 0 RQ ROW_BUFFER_HIT:      63655
  ROW_BUFFER_MISS:     255243
 AVG DBUS CONGESTED CYCLE: 3.891
WQ ROW_BUFFER_HIT: Channel 0 
  ROW_BUFFER_MISS:       4597
  FULL:      32523
Final OPTGen Hits: 9853
Final OPTGen Access: 8472
Final OPTGEN Hit Rate: 116.301
